<!-- number of vehicles:90 -->
<!-- generated on 2022-01-05 17:42:12.961158 by "vehicleFlow.py cars_90_9.rou.xml -m 2 -r 1.5 -t 90" -->
<routes>
  <route id="0" edges="w_to_c1 c1_to_c2 c2_to_e"/>
  <route id="1" edges="n1_to_c1 c1_to_s1"/>
  <route id="2" edges="s1_to_c1 c1_to_n1"/>
  <route id="3" edges="n2_to_c2 c2_to_s2"/>
  <route id="4" edges="e_to_c2 c2_to_c1 c1_to_w"/>
  <route id="5" edges="s2_to_c2 c2_to_n2"/>
  <route id="6" edges="w_to_c1 c1_to_s1"/>
  <route id="7" edges="w_to_c1 c1_to_c2 c2_to_s2"/>
  <route id="8" edges="w_to_c1 c1_to_c2 c2_to_n2"/>
  <route id="9" edges="w_to_c1 c1_to_n1"/>
  <route id="10" edges="s1_to_c1 c1_to_c2 c2_to_s2"/>
  <route id="11" edges="s1_to_c1 c1_to_c2 c2_to_e"/>
  <route id="12" edges="s1_to_c1 c1_to_c2 c2_to_n2"/>
  <route id="13" edges="s1_to_c1 c1_to_w"/>
  <route id="14" edges="s2_to_c2 c2_to_e"/>
  <route id="15" edges="s2_to_c2 c2_to_c1 c1_to_n1"/>
  <route id="16" edges="s2_to_c2 c2_to_c1 c1_to_w"/>
  <route id="17" edges="s2_to_c2 c2_to_c1 c1_to_s1"/>
  <route id="18" edges="e_to_c2 c2_to_n2"/>
  <route id="19" edges="e_to_c2 c2_to_c1 c1_to_n1"/>
  <route id="20" edges="e_to_c2 c2_to_c1 c1_to_s1"/>
  <route id="21" edges="e_to_c2 c2_to_s2"/>
  <route id="22" edges="n2_to_c2 c2_to_c1 c1_to_n1"/>
  <route id="23" edges="n2_to_c2 c2_to_c1 c1_to_w"/>
  <route id="24" edges="n2_to_c2 c2_to_c1 c1_to_s1"/>
  <route id="25" edges="n2_to_c2 c2_to_e"/>
  <route id="26" edges="n1_to_c1 c1_to_w"/>
  <route id="27" edges="n1_to_c1 c1_to_c2 c2_to_s2"/>
  <route id="28" edges="n1_to_c1 c1_to_c2 c2_to_e"/>
  <route id="29" edges="n1_to_c1 c1_to_c2 c2_to_n2"/>

  <vType accel="4" decel="7.5" emergencyDecel="7.5" minGap="5.0" speedDev="0.1" speedFactor="1.2" id="Car0" maxSpeed="27.77" />

      <vehicle id="veh1" type="Car0" depart="0.8245155412661999" route="20">
    </vehicle>
      <vehicle id="veh2" type="Car0" depart="1.1111135968581887" route="0">
    </vehicle>
      <vehicle id="veh3" type="Car0" depart="2.046194499416484" route="9">
    </vehicle>
      <vehicle id="veh4" type="Car0" depart="4.139970890112693" route="15">
    </vehicle>
      <vehicle id="veh5" type="Car0" depart="4.330109459940576" route="15">
    </vehicle>
      <vehicle id="veh6" type="Car0" depart="5.190535440801643" route="14">
    </vehicle>
      <vehicle id="veh7" type="Car0" depart="5.2930368522366695" route="13">
    </vehicle>
      <vehicle id="veh8" type="Car0" depart="5.594998033743149" route="13">
    </vehicle>
      <vehicle id="veh9" type="Car0" depart="5.8289145645155" route="26">
    </vehicle>
      <vehicle id="veh10" type="Car0" depart="6.529243097731186" route="29">
    </vehicle>
      <vehicle id="veh11" type="Car0" depart="7.0996996982167335" route="8">
    </vehicle>
      <vehicle id="veh12" type="Car0" depart="8.15851184225902" route="28">
    </vehicle>
      <vehicle id="veh13" type="Car0" depart="8.589713059024064" route="27">
    </vehicle>
      <vehicle id="veh14" type="Car0" depart="9.249982061286847" route="17">
    </vehicle>
      <vehicle id="veh15" type="Car0" depart="10.60524230511248" route="13">
    </vehicle>
      <vehicle id="veh16" type="Car0" depart="11.993889286788036" route="28">
    </vehicle>
      <vehicle id="veh17" type="Car0" depart="12.447094362223062" route="13">
    </vehicle>
      <vehicle id="veh18" type="Car0" depart="12.963077189567604" route="15">
    </vehicle>
      <vehicle id="veh19" type="Car0" depart="14.549513677438672" route="8">
    </vehicle>
      <vehicle id="veh20" type="Car0" depart="14.56349943709746" route="21">
    </vehicle>
      <vehicle id="veh21" type="Car0" depart="16.10481306808721" route="9">
    </vehicle>
      <vehicle id="veh22" type="Car0" depart="16.263540606817283" route="19">
    </vehicle>
      <vehicle id="veh23" type="Car0" depart="16.722497556152405" route="11">
    </vehicle>
      <vehicle id="veh24" type="Car0" depart="16.982247023836823" route="13">
    </vehicle>
      <vehicle id="veh25" type="Car0" depart="17.32545213988271" route="12">
    </vehicle>
      <vehicle id="veh26" type="Car0" depart="18.482957839240836" route="6">
    </vehicle>
      <vehicle id="veh27" type="Car0" depart="18.667359189203385" route="3">
    </vehicle>
      <vehicle id="veh28" type="Car0" depart="19.305599662654174" route="9">
    </vehicle>
      <vehicle id="veh29" type="Car0" depart="20.672970745661367" route="27">
    </vehicle>
      <vehicle id="veh30" type="Car0" depart="21.041725064337083" route="28">
    </vehicle>
      <vehicle id="veh31" type="Car0" depart="21.87842837070686" route="13">
    </vehicle>
      <vehicle id="veh32" type="Car0" depart="21.971780673514928" route="25">
    </vehicle>
      <vehicle id="veh33" type="Car0" depart="22.838847146486223" route="2">
    </vehicle>
      <vehicle id="veh34" type="Car0" depart="24.096099776037597" route="14">
    </vehicle>
      <vehicle id="veh35" type="Car0" depart="24.710862490641464" route="22">
    </vehicle>
      <vehicle id="veh36" type="Car0" depart="26.414672438903786" route="10">
    </vehicle>
      <vehicle id="veh37" type="Car0" depart="27.57923581483752" route="9">
    </vehicle>
      <vehicle id="veh38" type="Car0" depart="27.77794219857458" route="9">
    </vehicle>
      <vehicle id="veh39" type="Car0" depart="27.89755074567657" route="18">
    </vehicle>
      <vehicle id="veh40" type="Car0" depart="28.12940288945564" route="6">
    </vehicle>
      <vehicle id="veh41" type="Car0" depart="28.4911618313648" route="6">
    </vehicle>
      <vehicle id="veh42" type="Car0" depart="29.46941464549528" route="18">
    </vehicle>
      <vehicle id="veh43" type="Car0" depart="29.53340659557183" route="11">
    </vehicle>
      <vehicle id="veh44" type="Car0" depart="30.31790841899678" route="11">
    </vehicle>
      <vehicle id="veh45" type="Car0" depart="30.937991972776835" route="0">
    </vehicle>
      <vehicle id="veh46" type="Car0" depart="31.015460472250663" route="28">
    </vehicle>
      <vehicle id="veh47" type="Car0" depart="31.74720500974693" route="10">
    </vehicle>
      <vehicle id="veh48" type="Car0" depart="31.831360639324934" route="7">
    </vehicle>
      <vehicle id="veh49" type="Car0" depart="31.843157242305555" route="28">
    </vehicle>
      <vehicle id="veh50" type="Car0" depart="32.778760439594095" route="13">
    </vehicle>
      <vehicle id="veh51" type="Car0" depart="32.926256513828264" route="18">
    </vehicle>
      <vehicle id="veh52" type="Car0" depart="33.47265271732952" route="13">
    </vehicle>
      <vehicle id="veh53" type="Car0" depart="33.667045493818684" route="18">
    </vehicle>
      <vehicle id="veh54" type="Car0" depart="33.685910175367304" route="4">
    </vehicle>
      <vehicle id="veh55" type="Car0" depart="33.883946802474654" route="1">
    </vehicle>
      <vehicle id="veh56" type="Car0" depart="34.3440855545606" route="28">
    </vehicle>
      <vehicle id="veh57" type="Car0" depart="34.564163620523395" route="1">
    </vehicle>
      <vehicle id="veh58" type="Car0" depart="34.850088179933245" route="29">
    </vehicle>
      <vehicle id="veh59" type="Car0" depart="35.01526279530608" route="8">
    </vehicle>
      <vehicle id="veh60" type="Car0" depart="35.22543589733556" route="5">
    </vehicle>
      <vehicle id="veh61" type="Car0" depart="37.025294819204575" route="4">
    </vehicle>
      <vehicle id="veh62" type="Car0" depart="37.76516930900624" route="18">
    </vehicle>
      <vehicle id="veh63" type="Car0" depart="37.99734164128219" route="9">
    </vehicle>
      <vehicle id="veh64" type="Car0" depart="39.19339581861349" route="4">
    </vehicle>
      <vehicle id="veh65" type="Car0" depart="39.52009517745401" route="20">
    </vehicle>
      <vehicle id="veh66" type="Car0" depart="39.791931617000934" route="18">
    </vehicle>
      <vehicle id="veh67" type="Car0" depart="40.06612211327888" route="9">
    </vehicle>
      <vehicle id="veh68" type="Car0" depart="40.89294246069162" route="28">
    </vehicle>
      <vehicle id="veh69" type="Car0" depart="41.53698412557281" route="20">
    </vehicle>
      <vehicle id="veh70" type="Car0" depart="41.78968799730872" route="21">
    </vehicle>
      <vehicle id="veh71" type="Car0" depart="42.236894320519376" route="15">
    </vehicle>
      <vehicle id="veh72" type="Car0" depart="43.08152472182541" route="3">
    </vehicle>
      <vehicle id="veh73" type="Car0" depart="43.60092166197248" route="0">
    </vehicle>
      <vehicle id="veh74" type="Car0" depart="43.61829525103379" route="0">
    </vehicle>
      <vehicle id="veh75" type="Car0" depart="44.93907423054312" route="5">
    </vehicle>
      <vehicle id="veh76" type="Car0" depart="48.18081868153412" route="21">
    </vehicle>
      <vehicle id="veh77" type="Car0" depart="48.76095257940313" route="21">
    </vehicle>
      <vehicle id="veh78" type="Car0" depart="49.64309120542309" route="2">
    </vehicle>
      <vehicle id="veh79" type="Car0" depart="51.2185389874537" route="18">
    </vehicle>
      <vehicle id="veh80" type="Car0" depart="51.70009065165812" route="21">
    </vehicle>
      <vehicle id="veh81" type="Car0" depart="51.99182155229653" route="22">
    </vehicle>
      <vehicle id="veh82" type="Car0" depart="52.205993516598646" route="5">
    </vehicle>
      <vehicle id="veh83" type="Car0" depart="52.31033853561561" route="17">
    </vehicle>
      <vehicle id="veh84" type="Car0" depart="52.47545252534078" route="21">
    </vehicle>
      <vehicle id="veh85" type="Car0" depart="52.754304085457164" route="14">
    </vehicle>
      <vehicle id="veh86" type="Car0" depart="52.9760889044861" route="0">
    </vehicle>
      <vehicle id="veh87" type="Car0" depart="53.369850847060654" route="2">
    </vehicle>
      <vehicle id="veh88" type="Car0" depart="53.69037364950725" route="1">
    </vehicle>
      <vehicle id="veh89" type="Car0" depart="53.9083164818174" route="7">
    </vehicle>
      <vehicle id="veh90" type="Car0" depart="54.93630686410071" route="26">
    </vehicle>
</routes>