<!-- number of vehicles:10 -->
<!-- generated on 2020-04-20 12:41:31.769297 by "cars.rou.xml -m 2 -r 1.5 -t 10" -->
<routes>
  <route id="0" edges="w_to_c1 c1_to_c2 c2_to_e"/>
  <route id="1" edges="n1_to_c1 c1_to_s1"/>
  <route id="2" edges="s1_to_c1 c1_to_n1"/>
  <route id="3" edges="n2_to_c2 c2_to_s2"/>
  <route id="4" edges="e_to_c2 c2_to_c1 c1_to_w"/>
  <route id="5" edges="s2_to_c2 c2_to_n2"/>
  <route id="6" edges="w_to_c1 c1_to_s1"/>
  <route id="7" edges="w_to_c1 c1_to_c2 c2_to_s2"/>
  <route id="8" edges="w_to_c1 c1_to_c2 c2_to_n2"/>
  <route id="9" edges="w_to_c1 c1_to_n1"/>
  <route id="10" edges="s1_to_c1 c1_to_c2 c2_to_s2"/>
  <route id="11" edges="s1_to_c1 c1_to_c2 c2_to_e"/>
  <route id="12" edges="s1_to_c1 c1_to_c2 c2_to_n2"/>
  <route id="13" edges="s1_to_c1 c1_to_w"/>
  <route id="14" edges="s2_to_c2 c2_to_e"/>
  <route id="15" edges="s2_to_c2 c2_to_c1 c1_to_n1"/>
  <route id="16" edges="s2_to_c2 c2_to_c1 c1_to_w"/>
  <route id="17" edges="s2_to_c2 c2_to_c1 c1_to_s1"/>
  <route id="18" edges="e_to_c2 c2_to_n2"/>
  <route id="19" edges="e_to_c2 c2_to_c1 c1_to_n1"/>
  <route id="20" edges="e_to_c2 c2_to_c1 c1_to_s1"/>
  <route id="21" edges="e_to_c2 c2_to_s2"/>
  <route id="22" edges="n2_to_c2 c2_to_c1 c1_to_n1"/>
  <route id="23" edges="n2_to_c2 c2_to_c1 c1_to_w"/>
  <route id="24" edges="n2_to_c2 c2_to_c1 c1_to_s1"/>
  <route id="25" edges="n2_to_c2 c2_to_e"/>
  <route id="26" edges="n1_to_c1 c1_to_w"/>
  <route id="27" edges="n1_to_c1 c1_to_c2 c2_to_s2"/>
  <route id="28" edges="n1_to_c1 c1_to_c2 c2_to_e"/>
  <route id="29" edges="n1_to_c1 c1_to_c2 c2_to_n2"/>
  <vType accel="4" decel="7.5" emergencyDecel="7.5" minGap="5.0" speedDev="0.1" speedFactor="1.2" id="Car0" maxSpeed="27.77" />

      <vehicle id="veh1" type="Car0" depart="0.29580927972" route="29">
    </vehicle>
      <vehicle id="veh2" type="Car0" depart="0.895707393611" route="21">
    </vehicle>
      <vehicle id="veh3" type="Car0" depart="1.2522059053" route="13">
    </vehicle>
      <vehicle id="veh4" type="Car0" depart="1.56876198874" route="24">
    </vehicle>
      <vehicle id="veh5" type="Car0" depart="1.9138262471" route="1">
    </vehicle>
      <vehicle id="veh6" type="Car0" depart="1.94355131554" route="23">
    </vehicle>
      <vehicle id="veh7" type="Car0" depart="2.17712270532" route="12">
    </vehicle>
      <vehicle id="veh8" type="Car0" depart="2.48516608229" route="11">
    </vehicle>
      <vehicle id="veh9" type="Car0" depart="3.09964318063" route="6">
    </vehicle>
      <vehicle id="veh10" type="Car0" depart="3.14588793954" route="17">
    </vehicle>
    <vehicle id="veh11" type="Car0" depart="3.29580927972" route="29">
    </vehicle>
      <vehicle id="veh12" type="Car0" depart="3.895707393611" route="21">
    </vehicle>
      <vehicle id="veh13" type="Car0" depart="4.2522059053" route="0">
    </vehicle>
      <vehicle id="veh14" type="Car0" depart="4.56876198874" route="1">
    </vehicle>
      <vehicle id="veh15" type="Car0" depart="4.9138262471" route="2">
    </vehicle>
      <vehicle id="veh16" type="Car0" depart="5.94355131554" route="3">
    </vehicle>
      <vehicle id="veh17" type="Car0" depart="6.17712270532" route="4">
    </vehicle>
      <vehicle id="veh18" type="Car0" depart="6.48516608229" route="5">
    </vehicle>
      <vehicle id="veh19" type="Car0" depart="7.09964318063" route="6">
    </vehicle>
      <vehicle id="veh20" type="Car0" depart="7.14588793954" route="7">
    </vehicle>
    <vehicle id="veh21" type="Car0" depart="7.29580927972" route="8">
    </vehicle>
      <vehicle id="veh22" type="Car0" depart="7.895707393611" route="9">
    </vehicle>
      <vehicle id="veh23" type="Car0" depart="8.2522059053" route="10">
    </vehicle>
      <vehicle id="veh24" type="Car0" depart="8.56876198874" route="11">
    </vehicle>
      <vehicle id="veh25" type="Car0" depart="8.9138262471" route="12">
    </vehicle>
      <vehicle id="veh26" type="Car0" depart="9.94355131554" route="13">
    </vehicle>
      <vehicle id="veh27" type="Car0" depart="10.17712270532" route="14">
    </vehicle>
      <vehicle id="veh28" type="Car0" depart="10.48516608229" route="15">
    </vehicle>
      <vehicle id="veh29" type="Car0" depart="11.09964318063" route="16">
    </vehicle>
      <vehicle id="veh30" type="Car0" depart="11.14588793954" route="17">
    </vehicle>
        <vehicle id="veh31" type="Car0" depart="11.29580927972" route="18">
    </vehicle>
      <vehicle id="veh32" type="Car0" depart="11.895707393611" route="19">
    </vehicle>
      <vehicle id="veh33" type="Car0" depart="12.2522059053" route="20">
    </vehicle>
      <vehicle id="veh34" type="Car0" depart="12.56876198874" route="21">
    </vehicle>
      <vehicle id="veh35" type="Car0" depart="12.9138262471" route="22">
    </vehicle>
      <vehicle id="veh36" type="Car0" depart="12.94355131554" route="23">
    </vehicle>
      <vehicle id="veh37" type="Car0" depart="13.17712270532" route="24">
    </vehicle>
      <vehicle id="veh38" type="Car0" depart="13.48516608229" route="25">
    </vehicle>
      <vehicle id="veh39" type="Car0" depart="14.09964318063" route="26">
    </vehicle>
      <vehicle id="veh40" type="Car0" depart="14.14588793954" route="27">
    </vehicle>
     <vehicle id="veh41" type="Car0" depart="14.29580927972" route="29">
    </vehicle>
      <vehicle id="veh42" type="Car0" depart="14.895707393611" route="28">
    </vehicle>
      <vehicle id="veh43" type="Car0" depart="15.2522059053" route="0">
    </vehicle>
      <vehicle id="veh44" type="Car0" depart="15.56876198874" route="1">
    </vehicle>
      <vehicle id="veh45" type="Car0" depart="15.9138262471" route="2">
    </vehicle>
      <vehicle id="veh46" type="Car0" depart="15.94355131554" route="3">
    </vehicle>
      <vehicle id="veh47" type="Car0" depart="16.17712270532" route="4">
    </vehicle>
      <vehicle id="veh48" type="Car0" depart="16.48516608229" route="5">
    </vehicle>
      <vehicle id="veh49" type="Car0" depart="17.09964318063" route="6">
    </vehicle>
      <vehicle id="veh50" type="Car0" depart="17.14588793954" route="7">
    </vehicle>
    <vehicle id="veh51" type="Car0" depart="17.29580927972" route="8">
    </vehicle>
      <vehicle id="veh52" type="Car0" depart="17.895707393611" route="9">
    </vehicle>
      <vehicle id="veh53" type="Car0" depart="18.2522059053" route="10">
    </vehicle>
      <vehicle id="veh54" type="Car0" depart="18.56876198874" route="11">
    </vehicle>
      <vehicle id="veh55" type="Car0" depart="18.9138262471" route="12">
    </vehicle>
      <vehicle id="veh56" type="Car0" depart="18.94355131554" route="13">
    </vehicle>
      <vehicle id="veh57" type="Car0" depart="19.17712270532" route="14">
    </vehicle>
      <vehicle id="veh58" type="Car0" depart="19.48516608229" route="15">
    </vehicle>
      <vehicle id="veh59" type="Car0" depart="20.09964318063" route="16">
    </vehicle>
      <vehicle id="veh60" type="Car0" depart="20.14588793954" route="17">
    </vehicle>
     <vehicle id="veh61" type="Car0" depart="20.29580927972" route="18">
    </vehicle>
      <vehicle id="veh62" type="Car0" depart="20.895707393611" route="19">
    </vehicle>
      <vehicle id="veh63" type="Car0" depart="21.2522059053" route="20">
    </vehicle>
      <vehicle id="veh64" type="Car0" depart="21.56876198874" route="21">
    </vehicle>
      <vehicle id="veh65" type="Car0" depart="21.9138262471" route="22">
    </vehicle>
      <vehicle id="veh66" type="Car0" depart="21.94355131554" route="23">
    </vehicle>
      <vehicle id="veh67" type="Car0" depart="22.17712270532" route="24">
    </vehicle>
      <vehicle id="veh68" type="Car0" depart="22.48516608229" route="25">
    </vehicle>
      <vehicle id="veh69" type="Car0" depart="23.09964318063" route="26">
    </vehicle>
      <vehicle id="veh70" type="Car0" depart="23.14588793954" route="27">
    </vehicle>
     <vehicle id="veh71" type="Car0" depart="23.29580927972" route="28">
    </vehicle>
      <vehicle id="veh72" type="Car0" depart="23.895707393611" route="29">
    </vehicle>
      <vehicle id="veh73" type="Car0" depart="24.2522059053" route="0">
    </vehicle>
      <vehicle id="veh74" type="Car0" depart="24.56876198874" route="1">
    </vehicle>
      <vehicle id="veh75" type="Car0" depart="24.9138262471" route="2">
    </vehicle>
      <vehicle id="veh76" type="Car0" depart="24.94355131554" route="3">
    </vehicle>
      <vehicle id="veh77" type="Car0" depart="25.17712270532" route="4">
    </vehicle>
      <vehicle id="veh78" type="Car0" depart="25.48516608229" route="5">
    </vehicle>
      <vehicle id="veh79" type="Car0" depart="26.09964318063" route="6">
    </vehicle>
      <vehicle id="veh80" type="Car0" depart="26.14588793954" route="7">
    </vehicle>
    <vehicle id="veh81" type="Car0" depart="26.29580927972" route="8">
    </vehicle>
      <vehicle id="veh82" type="Car0" depart="26.895707393611" route="9">
    </vehicle>
      <vehicle id="veh83" type="Car0" depart="27.2522059053" route="10">
    </vehicle>
      <vehicle id="veh84" type="Car0" depart="27.56876198874" route="11">
    </vehicle>
      <vehicle id="veh85" type="Car0" depart="27.9138262471" route="12">
    </vehicle>
      <vehicle id="veh86" type="Car0" depart="27.94355131554" route="13">
    </vehicle>
      <vehicle id="veh87" type="Car0" depart="28.17712270532" route="14">
    </vehicle>
      <vehicle id="veh88" type="Car0" depart="28.48516608229" route="15">
    </vehicle>
      <vehicle id="veh89" type="Car0" depart="29.09964318063" route="16">
    </vehicle>
      <vehicle id="veh90" type="Car0" depart="29.14588793954" route="17">
    </vehicle>
    <vehicle id="veh91" type="Car0" depart="29.29580927972" route="18">
    </vehicle>
      <vehicle id="veh92" type="Car0" depart="29.895707393611" route="19">
    </vehicle>
      <vehicle id="veh93" type="Car0" depart="30.2522059053" route="20">
    </vehicle>
      <vehicle id="veh94" type="Car0" depart="30.56876198874" route="21">
    </vehicle>
      <vehicle id="veh95" type="Car0" depart="30.9138262471" route="22">
    </vehicle>
      <vehicle id="veh96" type="Car0" depart="30.94355131554" route="23">
    </vehicle>
      <vehicle id="veh97" type="Car0" depart="31.17712270532" route="24">
    </vehicle>
      <vehicle id="veh98" type="Car0" depart="31.48516608229" route="25">
    </vehicle>
      <vehicle id="veh99" type="Car0" depart="32.09964318063" route="26">
    </vehicle>
      <vehicle id="veh100" type="Car0" depart="32.14588793954" route="27">
    </vehicle>
</routes>
