<!-- number of vehicles:20 -->
<!-- generated on 2022-01-05 17:42:12.003314 by "vehicleFlow.py cars_20_5.rou.xml -m 2 -r 1.5 -t 20" -->
<routes>
  <route id="0" edges="w_to_c1 c1_to_c2 c2_to_e"/>
  <route id="1" edges="n1_to_c1 c1_to_s1"/>
  <route id="2" edges="s1_to_c1 c1_to_n1"/>
  <route id="3" edges="n2_to_c2 c2_to_s2"/>
  <route id="4" edges="e_to_c2 c2_to_c1 c1_to_w"/>
  <route id="5" edges="s2_to_c2 c2_to_n2"/>
  <route id="6" edges="w_to_c1 c1_to_s1"/>
  <route id="7" edges="w_to_c1 c1_to_c2 c2_to_s2"/>
  <route id="8" edges="w_to_c1 c1_to_c2 c2_to_n2"/>
  <route id="9" edges="w_to_c1 c1_to_n1"/>
  <route id="10" edges="s1_to_c1 c1_to_c2 c2_to_s2"/>
  <route id="11" edges="s1_to_c1 c1_to_c2 c2_to_e"/>
  <route id="12" edges="s1_to_c1 c1_to_c2 c2_to_n2"/>
  <route id="13" edges="s1_to_c1 c1_to_w"/>
  <route id="14" edges="s2_to_c2 c2_to_e"/>
  <route id="15" edges="s2_to_c2 c2_to_c1 c1_to_n1"/>
  <route id="16" edges="s2_to_c2 c2_to_c1 c1_to_w"/>
  <route id="17" edges="s2_to_c2 c2_to_c1 c1_to_s1"/>
  <route id="18" edges="e_to_c2 c2_to_n2"/>
  <route id="19" edges="e_to_c2 c2_to_c1 c1_to_n1"/>
  <route id="20" edges="e_to_c2 c2_to_c1 c1_to_s1"/>
  <route id="21" edges="e_to_c2 c2_to_s2"/>
  <route id="22" edges="n2_to_c2 c2_to_c1 c1_to_n1"/>
  <route id="23" edges="n2_to_c2 c2_to_c1 c1_to_w"/>
  <route id="24" edges="n2_to_c2 c2_to_c1 c1_to_s1"/>
  <route id="25" edges="n2_to_c2 c2_to_e"/>
  <route id="26" edges="n1_to_c1 c1_to_w"/>
  <route id="27" edges="n1_to_c1 c1_to_c2 c2_to_s2"/>
  <route id="28" edges="n1_to_c1 c1_to_c2 c2_to_e"/>
  <route id="29" edges="n1_to_c1 c1_to_c2 c2_to_n2"/>

  <vType accel="4" decel="7.5" emergencyDecel="7.5" minGap="5.0" speedDev="0.1" speedFactor="1.2" id="Car0" maxSpeed="27.77" />

      <vehicle id="veh1" type="Car0" depart="0.5138623778026726" route="18">
    </vehicle>
      <vehicle id="veh2" type="Car0" depart="1.0789374372974918" route="20">
    </vehicle>
      <vehicle id="veh3" type="Car0" depart="1.6601813906405087" route="26">
    </vehicle>
      <vehicle id="veh4" type="Car0" depart="1.7314083819206552" route="12">
    </vehicle>
      <vehicle id="veh5" type="Car0" depart="2.2515578201073754" route="25">
    </vehicle>
      <vehicle id="veh6" type="Car0" depart="2.4895028514305624" route="16">
    </vehicle>
      <vehicle id="veh7" type="Car0" depart="2.5250080591992146" route="2">
    </vehicle>
      <vehicle id="veh8" type="Car0" depart="4.066669975640412" route="26">
    </vehicle>
      <vehicle id="veh9" type="Car0" depart="4.82132049520915" route="23">
    </vehicle>
      <vehicle id="veh10" type="Car0" depart="5.06289782618457" route="16">
    </vehicle>
      <vehicle id="veh11" type="Car0" depart="6.008853081147235" route="5">
    </vehicle>
      <vehicle id="veh12" type="Car0" depart="6.344635712879778" route="13">
    </vehicle>
      <vehicle id="veh13" type="Car0" depart="7.116287083854422" route="6">
    </vehicle>
      <vehicle id="veh14" type="Car0" depart="7.188868892308279" route="7">
    </vehicle>
      <vehicle id="veh15" type="Car0" depart="7.300814660342214" route="8">
    </vehicle>
      <vehicle id="veh16" type="Car0" depart="7.312343741175899" route="23">
    </vehicle>
      <vehicle id="veh17" type="Car0" depart="9.046343083168978" route="22">
    </vehicle>
      <vehicle id="veh18" type="Car0" depart="9.356867208900095" route="11">
    </vehicle>
      <vehicle id="veh19" type="Car0" depart="9.90325360496234" route="16">
    </vehicle>
      <vehicle id="veh20" type="Car0" depart="9.910740456354779" route="13">
    </vehicle>
</routes>