<!-- number of vehicles:50 -->
<!-- generated on 2022-01-05 17:42:11.255331 by "vehicleFlow.py cars_50_1.rou.xml -m 2 -r 1.5 -t 50" -->
<routes>
  <route id="0" edges="w_to_c1 c1_to_c2 c2_to_e"/>
  <route id="1" edges="n1_to_c1 c1_to_s1"/>
  <route id="2" edges="s1_to_c1 c1_to_n1"/>
  <route id="3" edges="n2_to_c2 c2_to_s2"/>
  <route id="4" edges="e_to_c2 c2_to_c1 c1_to_w"/>
  <route id="5" edges="s2_to_c2 c2_to_n2"/>
  <route id="6" edges="w_to_c1 c1_to_s1"/>
  <route id="7" edges="w_to_c1 c1_to_c2 c2_to_s2"/>
  <route id="8" edges="w_to_c1 c1_to_c2 c2_to_n2"/>
  <route id="9" edges="w_to_c1 c1_to_n1"/>
  <route id="10" edges="s1_to_c1 c1_to_c2 c2_to_s2"/>
  <route id="11" edges="s1_to_c1 c1_to_c2 c2_to_e"/>
  <route id="12" edges="s1_to_c1 c1_to_c2 c2_to_n2"/>
  <route id="13" edges="s1_to_c1 c1_to_w"/>
  <route id="14" edges="s2_to_c2 c2_to_e"/>
  <route id="15" edges="s2_to_c2 c2_to_c1 c1_to_n1"/>
  <route id="16" edges="s2_to_c2 c2_to_c1 c1_to_w"/>
  <route id="17" edges="s2_to_c2 c2_to_c1 c1_to_s1"/>
  <route id="18" edges="e_to_c2 c2_to_n2"/>
  <route id="19" edges="e_to_c2 c2_to_c1 c1_to_n1"/>
  <route id="20" edges="e_to_c2 c2_to_c1 c1_to_s1"/>
  <route id="21" edges="e_to_c2 c2_to_s2"/>
  <route id="22" edges="n2_to_c2 c2_to_c1 c1_to_n1"/>
  <route id="23" edges="n2_to_c2 c2_to_c1 c1_to_w"/>
  <route id="24" edges="n2_to_c2 c2_to_c1 c1_to_s1"/>
  <route id="25" edges="n2_to_c2 c2_to_e"/>
  <route id="26" edges="n1_to_c1 c1_to_w"/>
  <route id="27" edges="n1_to_c1 c1_to_c2 c2_to_s2"/>
  <route id="28" edges="n1_to_c1 c1_to_c2 c2_to_e"/>
  <route id="29" edges="n1_to_c1 c1_to_c2 c2_to_n2"/>

  <vType accel="4" decel="7.5" emergencyDecel="7.5" minGap="5.0" speedDev="0.1" speedFactor="1.2" id="Car0" maxSpeed="27.77" />

      <vehicle id="veh1" type="Car0" depart="0.46462347643532714" route="7">
    </vehicle>
      <vehicle id="veh2" type="Car0" depart="0.6310786076050288" route="23">
    </vehicle>
      <vehicle id="veh3" type="Car0" depart="1.6510779137544154" route="12">
    </vehicle>
      <vehicle id="veh4" type="Car0" depart="1.839617806734228" route="7">
    </vehicle>
      <vehicle id="veh5" type="Car0" depart="2.5447193108308497" route="1">
    </vehicle>
      <vehicle id="veh6" type="Car0" depart="3.1429324965150798" route="6">
    </vehicle>
      <vehicle id="veh7" type="Car0" depart="3.5978292876365723" route="9">
    </vehicle>
      <vehicle id="veh8" type="Car0" depart="3.7933904683280772" route="15">
    </vehicle>
      <vehicle id="veh9" type="Car0" depart="7.27693538468213" route="22">
    </vehicle>
      <vehicle id="veh10" type="Car0" depart="8.126862140445178" route="15">
    </vehicle>
      <vehicle id="veh11" type="Car0" depart="8.374617961376416" route="24">
    </vehicle>
      <vehicle id="veh12" type="Car0" depart="8.993780919536151" route="27">
    </vehicle>
      <vehicle id="veh13" type="Car0" depart="9.162851069562182" route="4">
    </vehicle>
      <vehicle id="veh14" type="Car0" depart="9.971716259757605" route="9">
    </vehicle>
      <vehicle id="veh15" type="Car0" depart="10.66715487912651" route="3">
    </vehicle>
      <vehicle id="veh16" type="Car0" depart="11.70839698581525" route="9">
    </vehicle>
      <vehicle id="veh17" type="Car0" depart="12.038860305706537" route="4">
    </vehicle>
      <vehicle id="veh18" type="Car0" depart="12.105502690315733" route="20">
    </vehicle>
      <vehicle id="veh19" type="Car0" depart="13.51531866977268" route="25">
    </vehicle>
      <vehicle id="veh20" type="Car0" depart="13.940878004220677" route="7">
    </vehicle>
      <vehicle id="veh21" type="Car0" depart="14.43477614629522" route="17">
    </vehicle>
      <vehicle id="veh22" type="Car0" depart="15.035112886559144" route="19">
    </vehicle>
      <vehicle id="veh23" type="Car0" depart="16.152357186583497" route="23">
    </vehicle>
      <vehicle id="veh24" type="Car0" depart="16.827739649763448" route="12">
    </vehicle>
      <vehicle id="veh25" type="Car0" depart="16.924295602558153" route="8">
    </vehicle>
      <vehicle id="veh26" type="Car0" depart="17.853282212231633" route="2">
    </vehicle>
      <vehicle id="veh27" type="Car0" depart="18.851951023815076" route="9">
    </vehicle>
      <vehicle id="veh28" type="Car0" depart="19.040393869530206" route="16">
    </vehicle>
      <vehicle id="veh29" type="Car0" depart="19.237322479288174" route="15">
    </vehicle>
      <vehicle id="veh30" type="Car0" depart="19.509312008157032" route="23">
    </vehicle>
      <vehicle id="veh31" type="Car0" depart="20.022540044549945" route="5">
    </vehicle>
      <vehicle id="veh32" type="Car0" depart="21.562966778285855" route="21">
    </vehicle>
      <vehicle id="veh33" type="Car0" depart="21.85302964323562" route="19">
    </vehicle>
      <vehicle id="veh34" type="Car0" depart="22.577457997098414" route="15">
    </vehicle>
      <vehicle id="veh35" type="Car0" depart="23.085560187936792" route="17">
    </vehicle>
      <vehicle id="veh36" type="Car0" depart="23.490781428365526" route="24">
    </vehicle>
      <vehicle id="veh37" type="Car0" depart="23.70106053573924" route="12">
    </vehicle>
      <vehicle id="veh38" type="Car0" depart="23.83080336368708" route="6">
    </vehicle>
      <vehicle id="veh39" type="Car0" depart="24.994657164303096" route="7">
    </vehicle>
      <vehicle id="veh40" type="Car0" depart="24.998938931190562" route="19">
    </vehicle>
      <vehicle id="veh41" type="Car0" depart="25.476186232117556" route="1">
    </vehicle>
      <vehicle id="veh42" type="Car0" depart="27.631632962124534" route="4">
    </vehicle>
      <vehicle id="veh43" type="Car0" depart="27.956837498378132" route="6">
    </vehicle>
      <vehicle id="veh44" type="Car0" depart="28.31951013584727" route="24">
    </vehicle>
      <vehicle id="veh45" type="Car0" depart="28.66288220776864" route="8">
    </vehicle>
      <vehicle id="veh46" type="Car0" depart="29.14988099941967" route="5">
    </vehicle>
      <vehicle id="veh47" type="Car0" depart="29.80313640295524" route="24">
    </vehicle>
      <vehicle id="veh48" type="Car0" depart="30.116661266499477" route="28">
    </vehicle>
      <vehicle id="veh49" type="Car0" depart="30.156932657987827" route="15">
    </vehicle>
      <vehicle id="veh50" type="Car0" depart="31.992951833941138" route="21">
    </vehicle>
</routes>