<!-- number of vehicles:20 -->
<!-- generated on 2022-01-05 17:42:12.818728 by "vehicleFlow.py cars_20_9.rou.xml -m 2 -r 1.5 -t 20" -->
<routes>
  <route id="0" edges="w_to_c1 c1_to_c2 c2_to_e"/>
  <route id="1" edges="n1_to_c1 c1_to_s1"/>
  <route id="2" edges="s1_to_c1 c1_to_n1"/>
  <route id="3" edges="n2_to_c2 c2_to_s2"/>
  <route id="4" edges="e_to_c2 c2_to_c1 c1_to_w"/>
  <route id="5" edges="s2_to_c2 c2_to_n2"/>
  <route id="6" edges="w_to_c1 c1_to_s1"/>
  <route id="7" edges="w_to_c1 c1_to_c2 c2_to_s2"/>
  <route id="8" edges="w_to_c1 c1_to_c2 c2_to_n2"/>
  <route id="9" edges="w_to_c1 c1_to_n1"/>
  <route id="10" edges="s1_to_c1 c1_to_c2 c2_to_s2"/>
  <route id="11" edges="s1_to_c1 c1_to_c2 c2_to_e"/>
  <route id="12" edges="s1_to_c1 c1_to_c2 c2_to_n2"/>
  <route id="13" edges="s1_to_c1 c1_to_w"/>
  <route id="14" edges="s2_to_c2 c2_to_e"/>
  <route id="15" edges="s2_to_c2 c2_to_c1 c1_to_n1"/>
  <route id="16" edges="s2_to_c2 c2_to_c1 c1_to_w"/>
  <route id="17" edges="s2_to_c2 c2_to_c1 c1_to_s1"/>
  <route id="18" edges="e_to_c2 c2_to_n2"/>
  <route id="19" edges="e_to_c2 c2_to_c1 c1_to_n1"/>
  <route id="20" edges="e_to_c2 c2_to_c1 c1_to_s1"/>
  <route id="21" edges="e_to_c2 c2_to_s2"/>
  <route id="22" edges="n2_to_c2 c2_to_c1 c1_to_n1"/>
  <route id="23" edges="n2_to_c2 c2_to_c1 c1_to_w"/>
  <route id="24" edges="n2_to_c2 c2_to_c1 c1_to_s1"/>
  <route id="25" edges="n2_to_c2 c2_to_e"/>
  <route id="26" edges="n1_to_c1 c1_to_w"/>
  <route id="27" edges="n1_to_c1 c1_to_c2 c2_to_s2"/>
  <route id="28" edges="n1_to_c1 c1_to_c2 c2_to_e"/>
  <route id="29" edges="n1_to_c1 c1_to_c2 c2_to_n2"/>

  <vType accel="4" decel="7.5" emergencyDecel="7.5" minGap="5.0" speedDev="0.1" speedFactor="1.2" id="Car0" maxSpeed="27.77" />

      <vehicle id="veh1" type="Car0" depart="0.006506826271349874" route="2">
    </vehicle>
      <vehicle id="veh2" type="Car0" depart="0.759370106823016" route="21">
    </vehicle>
      <vehicle id="veh3" type="Car0" depart="1.5268449767842385" route="25">
    </vehicle>
      <vehicle id="veh4" type="Car0" depart="1.6238422536260921" route="9">
    </vehicle>
      <vehicle id="veh5" type="Car0" depart="2.516573954614972" route="1">
    </vehicle>
      <vehicle id="veh6" type="Car0" depart="2.748574658342463" route="16">
    </vehicle>
      <vehicle id="veh7" type="Car0" depart="4.387551946741524" route="19">
    </vehicle>
      <vehicle id="veh8" type="Car0" depart="4.787355115390603" route="26">
    </vehicle>
      <vehicle id="veh9" type="Car0" depart="5.03176363734068" route="10">
    </vehicle>
      <vehicle id="veh10" type="Car0" depart="6.136499717625567" route="0">
    </vehicle>
      <vehicle id="veh11" type="Car0" depart="7.376508949279324" route="5">
    </vehicle>
      <vehicle id="veh12" type="Car0" depart="7.941584317577998" route="8">
    </vehicle>
      <vehicle id="veh13" type="Car0" depart="8.187707916210874" route="16">
    </vehicle>
      <vehicle id="veh14" type="Car0" depart="9.291924245179999" route="27">
    </vehicle>
      <vehicle id="veh15" type="Car0" depart="10.257979579898686" route="14">
    </vehicle>
      <vehicle id="veh16" type="Car0" depart="13.336950304891769" route="7">
    </vehicle>
      <vehicle id="veh17" type="Car0" depart="14.65700911014477" route="22">
    </vehicle>
      <vehicle id="veh18" type="Car0" depart="14.77206947168847" route="0">
    </vehicle>
      <vehicle id="veh19" type="Car0" depart="14.777732812389694" route="7">
    </vehicle>
      <vehicle id="veh20" type="Car0" depart="14.876994321120073" route="21">
    </vehicle>
</routes>