<!-- number of vehicles:70 -->
<!-- generated on 2022-01-05 17:42:12.308481 by "vehicleFlow.py cars_70_6.rou.xml -m 2 -r 1.5 -t 70" -->
<routes>
  <route id="0" edges="w_to_c1 c1_to_c2 c2_to_e"/>
  <route id="1" edges="n1_to_c1 c1_to_s1"/>
  <route id="2" edges="s1_to_c1 c1_to_n1"/>
  <route id="3" edges="n2_to_c2 c2_to_s2"/>
  <route id="4" edges="e_to_c2 c2_to_c1 c1_to_w"/>
  <route id="5" edges="s2_to_c2 c2_to_n2"/>
  <route id="6" edges="w_to_c1 c1_to_s1"/>
  <route id="7" edges="w_to_c1 c1_to_c2 c2_to_s2"/>
  <route id="8" edges="w_to_c1 c1_to_c2 c2_to_n2"/>
  <route id="9" edges="w_to_c1 c1_to_n1"/>
  <route id="10" edges="s1_to_c1 c1_to_c2 c2_to_s2"/>
  <route id="11" edges="s1_to_c1 c1_to_c2 c2_to_e"/>
  <route id="12" edges="s1_to_c1 c1_to_c2 c2_to_n2"/>
  <route id="13" edges="s1_to_c1 c1_to_w"/>
  <route id="14" edges="s2_to_c2 c2_to_e"/>
  <route id="15" edges="s2_to_c2 c2_to_c1 c1_to_n1"/>
  <route id="16" edges="s2_to_c2 c2_to_c1 c1_to_w"/>
  <route id="17" edges="s2_to_c2 c2_to_c1 c1_to_s1"/>
  <route id="18" edges="e_to_c2 c2_to_n2"/>
  <route id="19" edges="e_to_c2 c2_to_c1 c1_to_n1"/>
  <route id="20" edges="e_to_c2 c2_to_c1 c1_to_s1"/>
  <route id="21" edges="e_to_c2 c2_to_s2"/>
  <route id="22" edges="n2_to_c2 c2_to_c1 c1_to_n1"/>
  <route id="23" edges="n2_to_c2 c2_to_c1 c1_to_w"/>
  <route id="24" edges="n2_to_c2 c2_to_c1 c1_to_s1"/>
  <route id="25" edges="n2_to_c2 c2_to_e"/>
  <route id="26" edges="n1_to_c1 c1_to_w"/>
  <route id="27" edges="n1_to_c1 c1_to_c2 c2_to_s2"/>
  <route id="28" edges="n1_to_c1 c1_to_c2 c2_to_e"/>
  <route id="29" edges="n1_to_c1 c1_to_c2 c2_to_n2"/>

  <vType accel="4" decel="7.5" emergencyDecel="7.5" minGap="5.0" speedDev="0.1" speedFactor="1.2" id="Car0" maxSpeed="27.77" />

      <vehicle id="veh1" type="Car0" depart="0.39195452036024986" route="29">
    </vehicle>
      <vehicle id="veh2" type="Car0" depart="0.9816932042032163" route="9">
    </vehicle>
      <vehicle id="veh3" type="Car0" depart="1.8367602299173393" route="26">
    </vehicle>
      <vehicle id="veh4" type="Car0" depart="2.6979550906400087" route="6">
    </vehicle>
      <vehicle id="veh5" type="Car0" depart="3.5942566211428204" route="5">
    </vehicle>
      <vehicle id="veh6" type="Car0" depart="3.9123278078949175" route="16">
    </vehicle>
      <vehicle id="veh7" type="Car0" depart="4.028749707459258" route="22">
    </vehicle>
      <vehicle id="veh8" type="Car0" depart="4.039229060847993" route="26">
    </vehicle>
      <vehicle id="veh9" type="Car0" depart="4.470130050270784" route="9">
    </vehicle>
      <vehicle id="veh10" type="Car0" depart="4.89575381830087" route="7">
    </vehicle>
      <vehicle id="veh11" type="Car0" depart="5.8156901596356745" route="16">
    </vehicle>
      <vehicle id="veh12" type="Car0" depart="7.000459133523733" route="27">
    </vehicle>
      <vehicle id="veh13" type="Car0" depart="10.330978264856945" route="12">
    </vehicle>
      <vehicle id="veh14" type="Car0" depart="10.908049472951731" route="17">
    </vehicle>
      <vehicle id="veh15" type="Car0" depart="11.858409347018496" route="17">
    </vehicle>
      <vehicle id="veh16" type="Car0" depart="12.255548957170953" route="20">
    </vehicle>
      <vehicle id="veh17" type="Car0" depart="13.023781662195185" route="12">
    </vehicle>
      <vehicle id="veh18" type="Car0" depart="13.618023912216405" route="3">
    </vehicle>
      <vehicle id="veh19" type="Car0" depart="14.04383182864418" route="23">
    </vehicle>
      <vehicle id="veh20" type="Car0" depart="15.65562246171712" route="16">
    </vehicle>
      <vehicle id="veh21" type="Car0" depart="15.884909766610493" route="2">
    </vehicle>
      <vehicle id="veh22" type="Car0" depart="16.01336513573622" route="27">
    </vehicle>
      <vehicle id="veh23" type="Car0" depart="16.143366296565773" route="27">
    </vehicle>
      <vehicle id="veh24" type="Car0" depart="16.253426454340175" route="10">
    </vehicle>
      <vehicle id="veh25" type="Car0" depart="16.436842746641652" route="15">
    </vehicle>
      <vehicle id="veh26" type="Car0" depart="17.463739231126375" route="8">
    </vehicle>
      <vehicle id="veh27" type="Car0" depart="17.598660191516586" route="6">
    </vehicle>
      <vehicle id="veh28" type="Car0" depart="17.653943121032803" route="9">
    </vehicle>
      <vehicle id="veh29" type="Car0" depart="18.02195579690245" route="29">
    </vehicle>
      <vehicle id="veh30" type="Car0" depart="18.029739526011326" route="12">
    </vehicle>
      <vehicle id="veh31" type="Car0" depart="19.51698313942882" route="5">
    </vehicle>
      <vehicle id="veh32" type="Car0" depart="20.55484292936291" route="3">
    </vehicle>
      <vehicle id="veh33" type="Car0" depart="22.267068307940903" route="20">
    </vehicle>
      <vehicle id="veh34" type="Car0" depart="22.442986789954535" route="17">
    </vehicle>
      <vehicle id="veh35" type="Car0" depart="23.13763602336561" route="18">
    </vehicle>
      <vehicle id="veh36" type="Car0" depart="23.154881690957605" route="22">
    </vehicle>
      <vehicle id="veh37" type="Car0" depart="23.204988984755" route="1">
    </vehicle>
      <vehicle id="veh38" type="Car0" depart="23.224759540228234" route="11">
    </vehicle>
      <vehicle id="veh39" type="Car0" depart="25.02818165420283" route="22">
    </vehicle>
      <vehicle id="veh40" type="Car0" depart="25.06383636033486" route="11">
    </vehicle>
      <vehicle id="veh41" type="Car0" depart="25.656056155438634" route="2">
    </vehicle>
      <vehicle id="veh42" type="Car0" depart="26.449352851127202" route="29">
    </vehicle>
      <vehicle id="veh43" type="Car0" depart="26.451923643544255" route="10">
    </vehicle>
      <vehicle id="veh44" type="Car0" depart="26.642504897601928" route="27">
    </vehicle>
      <vehicle id="veh45" type="Car0" depart="27.555602868146426" route="11">
    </vehicle>
      <vehicle id="veh46" type="Car0" depart="27.760274745991413" route="10">
    </vehicle>
      <vehicle id="veh47" type="Car0" depart="28.123504352814887" route="23">
    </vehicle>
      <vehicle id="veh48" type="Car0" depart="28.174481312303183" route="22">
    </vehicle>
      <vehicle id="veh49" type="Car0" depart="29.02267901883933" route="15">
    </vehicle>
      <vehicle id="veh50" type="Car0" depart="30.592409805961253" route="12">
    </vehicle>
      <vehicle id="veh51" type="Car0" depart="31.023899540170294" route="9">
    </vehicle>
      <vehicle id="veh52" type="Car0" depart="31.390069448894938" route="5">
    </vehicle>
      <vehicle id="veh53" type="Car0" depart="33.94330512188467" route="22">
    </vehicle>
      <vehicle id="veh54" type="Car0" depart="34.563625508079916" route="8">
    </vehicle>
      <vehicle id="veh55" type="Car0" depart="34.66774473889434" route="1">
    </vehicle>
      <vehicle id="veh56" type="Car0" depart="35.77554234320534" route="22">
    </vehicle>
      <vehicle id="veh57" type="Car0" depart="37.79047797389714" route="26">
    </vehicle>
      <vehicle id="veh58" type="Car0" depart="38.66343032263388" route="15">
    </vehicle>
      <vehicle id="veh59" type="Car0" depart="39.45801230253293" route="14">
    </vehicle>
      <vehicle id="veh60" type="Car0" depart="39.733351028049206" route="17">
    </vehicle>
      <vehicle id="veh61" type="Car0" depart="39.73928386647831" route="3">
    </vehicle>
      <vehicle id="veh62" type="Car0" depart="41.290194545421535" route="4">
    </vehicle>
      <vehicle id="veh63" type="Car0" depart="41.43851247221097" route="5">
    </vehicle>
      <vehicle id="veh64" type="Car0" depart="41.653842550565464" route="9">
    </vehicle>
      <vehicle id="veh65" type="Car0" depart="42.64905723698117" route="20">
    </vehicle>
      <vehicle id="veh66" type="Car0" depart="43.80465388962218" route="23">
    </vehicle>
      <vehicle id="veh67" type="Car0" depart="44.25270697625683" route="12">
    </vehicle>
      <vehicle id="veh68" type="Car0" depart="44.29424717271833" route="15">
    </vehicle>
      <vehicle id="veh69" type="Car0" depart="44.299557474146035" route="16">
    </vehicle>
      <vehicle id="veh70" type="Car0" depart="44.30112798558498" route="11">
    </vehicle>
</routes>