<!-- number of vehicles:100 -->
<!-- generated on 2022-01-05 17:42:12.778955 by "vehicleFlow.py cars_100_8.rou.xml -m 2 -r 1.5 -t 100" -->
<routes>
  <route id="0" edges="w_to_c1 c1_to_c2 c2_to_e"/>
  <route id="1" edges="n1_to_c1 c1_to_s1"/>
  <route id="2" edges="s1_to_c1 c1_to_n1"/>
  <route id="3" edges="n2_to_c2 c2_to_s2"/>
  <route id="4" edges="e_to_c2 c2_to_c1 c1_to_w"/>
  <route id="5" edges="s2_to_c2 c2_to_n2"/>
  <route id="6" edges="w_to_c1 c1_to_s1"/>
  <route id="7" edges="w_to_c1 c1_to_c2 c2_to_s2"/>
  <route id="8" edges="w_to_c1 c1_to_c2 c2_to_n2"/>
  <route id="9" edges="w_to_c1 c1_to_n1"/>
  <route id="10" edges="s1_to_c1 c1_to_c2 c2_to_s2"/>
  <route id="11" edges="s1_to_c1 c1_to_c2 c2_to_e"/>
  <route id="12" edges="s1_to_c1 c1_to_c2 c2_to_n2"/>
  <route id="13" edges="s1_to_c1 c1_to_w"/>
  <route id="14" edges="s2_to_c2 c2_to_e"/>
  <route id="15" edges="s2_to_c2 c2_to_c1 c1_to_n1"/>
  <route id="16" edges="s2_to_c2 c2_to_c1 c1_to_w"/>
  <route id="17" edges="s2_to_c2 c2_to_c1 c1_to_s1"/>
  <route id="18" edges="e_to_c2 c2_to_n2"/>
  <route id="19" edges="e_to_c2 c2_to_c1 c1_to_n1"/>
  <route id="20" edges="e_to_c2 c2_to_c1 c1_to_s1"/>
  <route id="21" edges="e_to_c2 c2_to_s2"/>
  <route id="22" edges="n2_to_c2 c2_to_c1 c1_to_n1"/>
  <route id="23" edges="n2_to_c2 c2_to_c1 c1_to_w"/>
  <route id="24" edges="n2_to_c2 c2_to_c1 c1_to_s1"/>
  <route id="25" edges="n2_to_c2 c2_to_e"/>
  <route id="26" edges="n1_to_c1 c1_to_w"/>
  <route id="27" edges="n1_to_c1 c1_to_c2 c2_to_s2"/>
  <route id="28" edges="n1_to_c1 c1_to_c2 c2_to_e"/>
  <route id="29" edges="n1_to_c1 c1_to_c2 c2_to_n2"/>

  <vType accel="4" decel="7.5" emergencyDecel="7.5" minGap="5.0" speedDev="0.1" speedFactor="1.2" id="Car0" maxSpeed="27.77" />

      <vehicle id="veh1" type="Car0" depart="2.1818482575510294" route="25">
    </vehicle>
      <vehicle id="veh2" type="Car0" depart="3.1615711331803626" route="17">
    </vehicle>
      <vehicle id="veh3" type="Car0" depart="3.64546838436854" route="2">
    </vehicle>
      <vehicle id="veh4" type="Car0" depart="7.62802494169064" route="13">
    </vehicle>
      <vehicle id="veh5" type="Car0" depart="8.636967955015406" route="9">
    </vehicle>
      <vehicle id="veh6" type="Car0" depart="8.696476865854244" route="22">
    </vehicle>
      <vehicle id="veh7" type="Car0" depart="8.97561934484365" route="10">
    </vehicle>
      <vehicle id="veh8" type="Car0" depart="9.316678399841358" route="12">
    </vehicle>
      <vehicle id="veh9" type="Car0" depart="9.551324094257303" route="22">
    </vehicle>
      <vehicle id="veh10" type="Car0" depart="9.594504930441422" route="12">
    </vehicle>
      <vehicle id="veh11" type="Car0" depart="11.796209032740052" route="19">
    </vehicle>
      <vehicle id="veh12" type="Car0" depart="13.542806510368486" route="22">
    </vehicle>
      <vehicle id="veh13" type="Car0" depart="14.686112650657046" route="21">
    </vehicle>
      <vehicle id="veh14" type="Car0" depart="15.020124955825507" route="8">
    </vehicle>
      <vehicle id="veh15" type="Car0" depart="15.06769543751101" route="17">
    </vehicle>
      <vehicle id="veh16" type="Car0" depart="15.13129921025639" route="28">
    </vehicle>
      <vehicle id="veh17" type="Car0" depart="15.964211509009216" route="27">
    </vehicle>
      <vehicle id="veh18" type="Car0" depart="16.972940029210523" route="21">
    </vehicle>
      <vehicle id="veh19" type="Car0" depart="17.080156454093974" route="7">
    </vehicle>
      <vehicle id="veh20" type="Car0" depart="17.546466483775422" route="13">
    </vehicle>
      <vehicle id="veh21" type="Car0" depart="17.5851390164704" route="28">
    </vehicle>
      <vehicle id="veh22" type="Car0" depart="18.2485360112083" route="9">
    </vehicle>
      <vehicle id="veh23" type="Car0" depart="19.38092108034395" route="4">
    </vehicle>
      <vehicle id="veh24" type="Car0" depart="19.49877991260747" route="11">
    </vehicle>
      <vehicle id="veh25" type="Car0" depart="19.837599742653847" route="28">
    </vehicle>
      <vehicle id="veh26" type="Car0" depart="19.847333375883302" route="24">
    </vehicle>
      <vehicle id="veh27" type="Car0" depart="20.410529894802487" route="0">
    </vehicle>
      <vehicle id="veh28" type="Car0" depart="20.487688649236787" route="11">
    </vehicle>
      <vehicle id="veh29" type="Car0" depart="20.53519896243447" route="6">
    </vehicle>
      <vehicle id="veh30" type="Car0" depart="20.841944474498714" route="2">
    </vehicle>
      <vehicle id="veh31" type="Car0" depart="20.95269888499931" route="1">
    </vehicle>
      <vehicle id="veh32" type="Car0" depart="21.068350862428524" route="10">
    </vehicle>
      <vehicle id="veh33" type="Car0" depart="21.9510031284364" route="9">
    </vehicle>
      <vehicle id="veh34" type="Car0" depart="21.99973862881933" route="3">
    </vehicle>
      <vehicle id="veh35" type="Car0" depart="22.216748310426418" route="16">
    </vehicle>
      <vehicle id="veh36" type="Car0" depart="24.48358766762193" route="3">
    </vehicle>
      <vehicle id="veh37" type="Car0" depart="24.539056366926207" route="22">
    </vehicle>
      <vehicle id="veh38" type="Car0" depart="25.710837486219493" route="5">
    </vehicle>
      <vehicle id="veh39" type="Car0" depart="25.813026804828546" route="2">
    </vehicle>
      <vehicle id="veh40" type="Car0" depart="26.027596427223" route="27">
    </vehicle>
      <vehicle id="veh41" type="Car0" depart="27.329098436286884" route="27">
    </vehicle>
      <vehicle id="veh42" type="Car0" depart="27.331700792880596" route="8">
    </vehicle>
      <vehicle id="veh43" type="Car0" depart="27.50767008532466" route="5">
    </vehicle>
      <vehicle id="veh44" type="Car0" depart="29.42708362827785" route="18">
    </vehicle>
      <vehicle id="veh45" type="Car0" depart="30.323230624540372" route="24">
    </vehicle>
      <vehicle id="veh46" type="Car0" depart="30.453392683773615" route="24">
    </vehicle>
      <vehicle id="veh47" type="Car0" depart="31.64807018455176" route="29">
    </vehicle>
      <vehicle id="veh48" type="Car0" depart="33.23309747055791" route="11">
    </vehicle>
      <vehicle id="veh49" type="Car0" depart="33.48977642690751" route="9">
    </vehicle>
      <vehicle id="veh50" type="Car0" depart="33.673163305391164" route="8">
    </vehicle>
      <vehicle id="veh51" type="Car0" depart="34.08693237520949" route="19">
    </vehicle>
      <vehicle id="veh52" type="Car0" depart="34.705602332908356" route="20">
    </vehicle>
      <vehicle id="veh53" type="Car0" depart="36.31637791292091" route="14">
    </vehicle>
      <vehicle id="veh54" type="Car0" depart="36.484115164310836" route="26">
    </vehicle>
      <vehicle id="veh55" type="Car0" depart="37.094284465860675" route="12">
    </vehicle>
      <vehicle id="veh56" type="Car0" depart="38.24999842774732" route="23">
    </vehicle>
      <vehicle id="veh57" type="Car0" depart="40.22052338366669" route="23">
    </vehicle>
      <vehicle id="veh58" type="Car0" depart="40.44890442065741" route="22">
    </vehicle>
      <vehicle id="veh59" type="Car0" depart="40.95609726727563" route="15">
    </vehicle>
      <vehicle id="veh60" type="Car0" depart="42.3438592642858" route="25">
    </vehicle>
      <vehicle id="veh61" type="Car0" depart="42.52922424058725" route="13">
    </vehicle>
      <vehicle id="veh62" type="Car0" depart="43.306902640625005" route="24">
    </vehicle>
      <vehicle id="veh63" type="Car0" depart="44.51929467374374" route="24">
    </vehicle>
      <vehicle id="veh64" type="Car0" depart="44.66235283776705" route="10">
    </vehicle>
      <vehicle id="veh65" type="Car0" depart="46.410501168856236" route="10">
    </vehicle>
      <vehicle id="veh66" type="Car0" depart="46.68239407039597" route="0">
    </vehicle>
      <vehicle id="veh67" type="Car0" depart="46.804424336952316" route="10">
    </vehicle>
      <vehicle id="veh68" type="Car0" depart="47.564243207792416" route="20">
    </vehicle>
      <vehicle id="veh69" type="Car0" depart="47.81945037607462" route="1">
    </vehicle>
      <vehicle id="veh70" type="Car0" depart="47.89636543155379" route="24">
    </vehicle>
      <vehicle id="veh71" type="Car0" depart="48.348004604712514" route="15">
    </vehicle>
      <vehicle id="veh72" type="Car0" depart="48.628489854353994" route="16">
    </vehicle>
      <vehicle id="veh73" type="Car0" depart="49.30081036018142" route="17">
    </vehicle>
      <vehicle id="veh74" type="Car0" depart="49.330045500524584" route="14">
    </vehicle>
      <vehicle id="veh75" type="Car0" depart="49.331885947907395" route="14">
    </vehicle>
      <vehicle id="veh76" type="Car0" depart="50.01139819652555" route="20">
    </vehicle>
      <vehicle id="veh77" type="Car0" depart="50.01426801415935" route="27">
    </vehicle>
      <vehicle id="veh78" type="Car0" depart="51.2820474333446" route="19">
    </vehicle>
      <vehicle id="veh79" type="Car0" depart="51.84712430102458" route="24">
    </vehicle>
      <vehicle id="veh80" type="Car0" depart="52.1693649119584" route="15">
    </vehicle>
      <vehicle id="veh81" type="Car0" depart="53.229341067136225" route="13">
    </vehicle>
      <vehicle id="veh82" type="Car0" depart="55.08856158341067" route="9">
    </vehicle>
      <vehicle id="veh83" type="Car0" depart="56.50269915646114" route="12">
    </vehicle>
      <vehicle id="veh84" type="Car0" depart="56.68287295121925" route="19">
    </vehicle>
      <vehicle id="veh85" type="Car0" depart="57.50524265627022" route="9">
    </vehicle>
      <vehicle id="veh86" type="Car0" depart="57.68713349802652" route="21">
    </vehicle>
      <vehicle id="veh87" type="Car0" depart="58.1859574339286" route="23">
    </vehicle>
      <vehicle id="veh88" type="Car0" depart="59.18770806383658" route="19">
    </vehicle>
      <vehicle id="veh89" type="Car0" depart="61.121148113563535" route="1">
    </vehicle>
      <vehicle id="veh90" type="Car0" depart="61.29762201720342" route="13">
    </vehicle>
      <vehicle id="veh91" type="Car0" depart="61.77514142132131" route="9">
    </vehicle>
      <vehicle id="veh92" type="Car0" depart="62.79748645855242" route="8">
    </vehicle>
      <vehicle id="veh93" type="Car0" depart="63.23562126045402" route="6">
    </vehicle>
      <vehicle id="veh94" type="Car0" depart="63.62071709723117" route="19">
    </vehicle>
      <vehicle id="veh95" type="Car0" depart="63.73009855918756" route="12">
    </vehicle>
      <vehicle id="veh96" type="Car0" depart="64.7106321486957" route="13">
    </vehicle>
      <vehicle id="veh97" type="Car0" depart="65.15536229179098" route="17">
    </vehicle>
      <vehicle id="veh98" type="Car0" depart="65.93014022832925" route="12">
    </vehicle>
      <vehicle id="veh99" type="Car0" depart="66.77116988269627" route="25">
    </vehicle>
      <vehicle id="veh100" type="Car0" depart="67.34468505368241" route="0">
    </vehicle>
</routes>