<!-- number of vehicles:80 -->
<!-- generated on 2022-01-05 17:42:11.920786 by "vehicleFlow.py cars_80_4.rou.xml -m 2 -r 1.5 -t 80" -->
<routes>
  <route id="0" edges="w_to_c1 c1_to_c2 c2_to_e"/>
  <route id="1" edges="n1_to_c1 c1_to_s1"/>
  <route id="2" edges="s1_to_c1 c1_to_n1"/>
  <route id="3" edges="n2_to_c2 c2_to_s2"/>
  <route id="4" edges="e_to_c2 c2_to_c1 c1_to_w"/>
  <route id="5" edges="s2_to_c2 c2_to_n2"/>
  <route id="6" edges="w_to_c1 c1_to_s1"/>
  <route id="7" edges="w_to_c1 c1_to_c2 c2_to_s2"/>
  <route id="8" edges="w_to_c1 c1_to_c2 c2_to_n2"/>
  <route id="9" edges="w_to_c1 c1_to_n1"/>
  <route id="10" edges="s1_to_c1 c1_to_c2 c2_to_s2"/>
  <route id="11" edges="s1_to_c1 c1_to_c2 c2_to_e"/>
  <route id="12" edges="s1_to_c1 c1_to_c2 c2_to_n2"/>
  <route id="13" edges="s1_to_c1 c1_to_w"/>
  <route id="14" edges="s2_to_c2 c2_to_e"/>
  <route id="15" edges="s2_to_c2 c2_to_c1 c1_to_n1"/>
  <route id="16" edges="s2_to_c2 c2_to_c1 c1_to_w"/>
  <route id="17" edges="s2_to_c2 c2_to_c1 c1_to_s1"/>
  <route id="18" edges="e_to_c2 c2_to_n2"/>
  <route id="19" edges="e_to_c2 c2_to_c1 c1_to_n1"/>
  <route id="20" edges="e_to_c2 c2_to_c1 c1_to_s1"/>
  <route id="21" edges="e_to_c2 c2_to_s2"/>
  <route id="22" edges="n2_to_c2 c2_to_c1 c1_to_n1"/>
  <route id="23" edges="n2_to_c2 c2_to_c1 c1_to_w"/>
  <route id="24" edges="n2_to_c2 c2_to_c1 c1_to_s1"/>
  <route id="25" edges="n2_to_c2 c2_to_e"/>
  <route id="26" edges="n1_to_c1 c1_to_w"/>
  <route id="27" edges="n1_to_c1 c1_to_c2 c2_to_s2"/>
  <route id="28" edges="n1_to_c1 c1_to_c2 c2_to_e"/>
  <route id="29" edges="n1_to_c1 c1_to_c2 c2_to_n2"/>

  <vType accel="4" decel="7.5" emergencyDecel="7.5" minGap="5.0" speedDev="0.1" speedFactor="1.2" id="Car0" maxSpeed="27.77" />

      <vehicle id="veh1" type="Car0" depart="0.05649198888258608" route="18">
    </vehicle>
      <vehicle id="veh2" type="Car0" depart="0.6282129964605242" route="23">
    </vehicle>
      <vehicle id="veh3" type="Car0" depart="1.4148173801057609" route="19">
    </vehicle>
      <vehicle id="veh4" type="Car0" depart="1.4524730994885995" route="0">
    </vehicle>
      <vehicle id="veh5" type="Car0" depart="2.2499187167376635" route="4">
    </vehicle>
      <vehicle id="veh6" type="Car0" depart="3.9415066165407557" route="17">
    </vehicle>
      <vehicle id="veh7" type="Car0" depart="4.791420254762853" route="4">
    </vehicle>
      <vehicle id="veh8" type="Car0" depart="4.81228751298898" route="10">
    </vehicle>
      <vehicle id="veh9" type="Car0" depart="4.880956160738307" route="28">
    </vehicle>
      <vehicle id="veh10" type="Car0" depart="5.770059006358082" route="18">
    </vehicle>
      <vehicle id="veh11" type="Car0" depart="7.1144957567457965" route="7">
    </vehicle>
      <vehicle id="veh12" type="Car0" depart="8.442544016956322" route="15">
    </vehicle>
      <vehicle id="veh13" type="Car0" depart="8.549844703648045" route="10">
    </vehicle>
      <vehicle id="veh14" type="Car0" depart="8.896630880068704" route="28">
    </vehicle>
      <vehicle id="veh15" type="Car0" depart="10.055776056458237" route="5">
    </vehicle>
      <vehicle id="veh16" type="Car0" depart="10.576043442775061" route="9">
    </vehicle>
      <vehicle id="veh17" type="Car0" depart="10.584764810490578" route="11">
    </vehicle>
      <vehicle id="veh18" type="Car0" depart="10.645158839924314" route="23">
    </vehicle>
      <vehicle id="veh19" type="Car0" depart="11.107141449514879" route="17">
    </vehicle>
      <vehicle id="veh20" type="Car0" depart="11.184834523528416" route="11">
    </vehicle>
      <vehicle id="veh21" type="Car0" depart="11.48798566120431" route="9">
    </vehicle>
      <vehicle id="veh22" type="Car0" depart="11.739905903269932" route="10">
    </vehicle>
      <vehicle id="veh23" type="Car0" depart="14.471621969947796" route="15">
    </vehicle>
      <vehicle id="veh24" type="Car0" depart="14.725600334028341" route="13">
    </vehicle>
      <vehicle id="veh25" type="Car0" depart="16.637127792936745" route="10">
    </vehicle>
      <vehicle id="veh26" type="Car0" depart="19.39520813507031" route="22">
    </vehicle>
      <vehicle id="veh27" type="Car0" depart="20.022420158625533" route="10">
    </vehicle>
      <vehicle id="veh28" type="Car0" depart="21.355442588847353" route="18">
    </vehicle>
      <vehicle id="veh29" type="Car0" depart="21.411411199236955" route="23">
    </vehicle>
      <vehicle id="veh30" type="Car0" depart="23.51853390990287" route="5">
    </vehicle>
      <vehicle id="veh31" type="Car0" depart="24.123265263317805" route="27">
    </vehicle>
      <vehicle id="veh32" type="Car0" depart="25.656574390757903" route="0">
    </vehicle>
      <vehicle id="veh33" type="Car0" depart="25.80510157473251" route="21">
    </vehicle>
      <vehicle id="veh34" type="Car0" depart="26.50606133054219" route="24">
    </vehicle>
      <vehicle id="veh35" type="Car0" depart="29.222652773932623" route="9">
    </vehicle>
      <vehicle id="veh36" type="Car0" depart="29.759067004672303" route="14">
    </vehicle>
      <vehicle id="veh37" type="Car0" depart="30.36147571913118" route="14">
    </vehicle>
      <vehicle id="veh38" type="Car0" depart="30.666903473433937" route="11">
    </vehicle>
      <vehicle id="veh39" type="Car0" depart="30.841031217004222" route="14">
    </vehicle>
      <vehicle id="veh40" type="Car0" depart="31.92050236858895" route="13">
    </vehicle>
      <vehicle id="veh41" type="Car0" depart="32.43418594309466" route="3">
    </vehicle>
      <vehicle id="veh42" type="Car0" depart="32.67279082024061" route="20">
    </vehicle>
      <vehicle id="veh43" type="Car0" depart="33.10044973808314" route="22">
    </vehicle>
      <vehicle id="veh44" type="Car0" depart="33.100821205173574" route="20">
    </vehicle>
      <vehicle id="veh45" type="Car0" depart="33.24130388915018" route="22">
    </vehicle>
      <vehicle id="veh46" type="Car0" depart="33.420905407527684" route="11">
    </vehicle>
      <vehicle id="veh47" type="Car0" depart="33.69848176630917" route="11">
    </vehicle>
      <vehicle id="veh48" type="Car0" depart="33.72394825381262" route="24">
    </vehicle>
      <vehicle id="veh49" type="Car0" depart="33.89190078032835" route="3">
    </vehicle>
      <vehicle id="veh50" type="Car0" depart="33.967129063940384" route="12">
    </vehicle>
      <vehicle id="veh51" type="Car0" depart="34.12755852615086" route="24">
    </vehicle>
      <vehicle id="veh52" type="Car0" depart="34.83635747292781" route="25">
    </vehicle>
      <vehicle id="veh53" type="Car0" depart="34.94822370620075" route="8">
    </vehicle>
      <vehicle id="veh54" type="Car0" depart="35.833945918972226" route="0">
    </vehicle>
      <vehicle id="veh55" type="Car0" depart="36.264369582020656" route="24">
    </vehicle>
      <vehicle id="veh56" type="Car0" depart="37.39752490253621" route="13">
    </vehicle>
      <vehicle id="veh57" type="Car0" depart="37.53072665214619" route="5">
    </vehicle>
      <vehicle id="veh58" type="Car0" depart="37.86382188533269" route="3">
    </vehicle>
      <vehicle id="veh59" type="Car0" depart="39.56558384492363" route="25">
    </vehicle>
      <vehicle id="veh60" type="Car0" depart="39.90994567218976" route="12">
    </vehicle>
      <vehicle id="veh61" type="Car0" depart="40.3359890933585" route="13">
    </vehicle>
      <vehicle id="veh62" type="Car0" depart="40.7833834700749" route="24">
    </vehicle>
      <vehicle id="veh63" type="Car0" depart="41.68729574408596" route="29">
    </vehicle>
      <vehicle id="veh64" type="Car0" depart="41.908037699300834" route="22">
    </vehicle>
      <vehicle id="veh65" type="Car0" depart="42.20983108674724" route="3">
    </vehicle>
      <vehicle id="veh66" type="Car0" depart="42.57608087769778" route="4">
    </vehicle>
      <vehicle id="veh67" type="Car0" depart="43.33285474569329" route="8">
    </vehicle>
      <vehicle id="veh68" type="Car0" depart="44.45793952886586" route="0">
    </vehicle>
      <vehicle id="veh69" type="Car0" depart="44.749840509128035" route="28">
    </vehicle>
      <vehicle id="veh70" type="Car0" depart="45.04733179077204" route="11">
    </vehicle>
      <vehicle id="veh71" type="Car0" depart="45.797858868808795" route="2">
    </vehicle>
      <vehicle id="veh72" type="Car0" depart="46.1776614901615" route="14">
    </vehicle>
      <vehicle id="veh73" type="Car0" depart="47.22544678857175" route="5">
    </vehicle>
      <vehicle id="veh74" type="Car0" depart="48.19224052805077" route="4">
    </vehicle>
      <vehicle id="veh75" type="Car0" depart="49.58884312362269" route="5">
    </vehicle>
      <vehicle id="veh76" type="Car0" depart="49.60949283024822" route="11">
    </vehicle>
      <vehicle id="veh77" type="Car0" depart="50.50667567633066" route="11">
    </vehicle>
      <vehicle id="veh78" type="Car0" depart="52.34415025680525" route="23">
    </vehicle>
      <vehicle id="veh79" type="Car0" depart="52.58702889038999" route="17">
    </vehicle>
      <vehicle id="veh80" type="Car0" depart="52.65703041360965" route="21">
    </vehicle>
</routes>