<!-- number of vehicles:90 -->
<!-- generated on 2022-01-05 17:42:11.940543 by "vehicleFlow.py cars_90_4.rou.xml -m 2 -r 1.5 -t 90" -->
<routes>
  <route id="0" edges="w_to_c1 c1_to_c2 c2_to_e"/>
  <route id="1" edges="n1_to_c1 c1_to_s1"/>
  <route id="2" edges="s1_to_c1 c1_to_n1"/>
  <route id="3" edges="n2_to_c2 c2_to_s2"/>
  <route id="4" edges="e_to_c2 c2_to_c1 c1_to_w"/>
  <route id="5" edges="s2_to_c2 c2_to_n2"/>
  <route id="6" edges="w_to_c1 c1_to_s1"/>
  <route id="7" edges="w_to_c1 c1_to_c2 c2_to_s2"/>
  <route id="8" edges="w_to_c1 c1_to_c2 c2_to_n2"/>
  <route id="9" edges="w_to_c1 c1_to_n1"/>
  <route id="10" edges="s1_to_c1 c1_to_c2 c2_to_s2"/>
  <route id="11" edges="s1_to_c1 c1_to_c2 c2_to_e"/>
  <route id="12" edges="s1_to_c1 c1_to_c2 c2_to_n2"/>
  <route id="13" edges="s1_to_c1 c1_to_w"/>
  <route id="14" edges="s2_to_c2 c2_to_e"/>
  <route id="15" edges="s2_to_c2 c2_to_c1 c1_to_n1"/>
  <route id="16" edges="s2_to_c2 c2_to_c1 c1_to_w"/>
  <route id="17" edges="s2_to_c2 c2_to_c1 c1_to_s1"/>
  <route id="18" edges="e_to_c2 c2_to_n2"/>
  <route id="19" edges="e_to_c2 c2_to_c1 c1_to_n1"/>
  <route id="20" edges="e_to_c2 c2_to_c1 c1_to_s1"/>
  <route id="21" edges="e_to_c2 c2_to_s2"/>
  <route id="22" edges="n2_to_c2 c2_to_c1 c1_to_n1"/>
  <route id="23" edges="n2_to_c2 c2_to_c1 c1_to_w"/>
  <route id="24" edges="n2_to_c2 c2_to_c1 c1_to_s1"/>
  <route id="25" edges="n2_to_c2 c2_to_e"/>
  <route id="26" edges="n1_to_c1 c1_to_w"/>
  <route id="27" edges="n1_to_c1 c1_to_c2 c2_to_s2"/>
  <route id="28" edges="n1_to_c1 c1_to_c2 c2_to_e"/>
  <route id="29" edges="n1_to_c1 c1_to_c2 c2_to_n2"/>

  <vType accel="4" decel="7.5" emergencyDecel="7.5" minGap="5.0" speedDev="0.1" speedFactor="1.2" id="Car0" maxSpeed="27.77" />

      <vehicle id="veh1" type="Car0" depart="0.38505320875598725" route="12">
    </vehicle>
      <vehicle id="veh2" type="Car0" depart="1.5180728584364276" route="4">
    </vehicle>
      <vehicle id="veh3" type="Car0" depart="2.639695495508547" route="28">
    </vehicle>
      <vehicle id="veh4" type="Car0" depart="3.8448420923842175" route="2">
    </vehicle>
      <vehicle id="veh5" type="Car0" depart="3.8959664607741855" route="0">
    </vehicle>
      <vehicle id="veh6" type="Car0" depart="4.885914742895972" route="15">
    </vehicle>
      <vehicle id="veh7" type="Car0" depart="5.017555099125833" route="27">
    </vehicle>
      <vehicle id="veh8" type="Car0" depart="5.895410752089092" route="21">
    </vehicle>
      <vehicle id="veh9" type="Car0" depart="6.1447032246323605" route="2">
    </vehicle>
      <vehicle id="veh10" type="Car0" depart="6.21567568778999" route="15">
    </vehicle>
      <vehicle id="veh11" type="Car0" depart="6.62395589971543" route="2">
    </vehicle>
      <vehicle id="veh12" type="Car0" depart="6.841509911790523" route="27">
    </vehicle>
      <vehicle id="veh13" type="Car0" depart="7.634909159970111" route="1">
    </vehicle>
      <vehicle id="veh14" type="Car0" depart="8.163726991923282" route="10">
    </vehicle>
      <vehicle id="veh15" type="Car0" depart="8.46961679082745" route="26">
    </vehicle>
      <vehicle id="veh16" type="Car0" depart="8.545496455334819" route="25">
    </vehicle>
      <vehicle id="veh17" type="Car0" depart="8.641585513576379" route="17">
    </vehicle>
      <vehicle id="veh18" type="Car0" depart="9.08720726411319" route="19">
    </vehicle>
      <vehicle id="veh19" type="Car0" depart="9.165766193381923" route="9">
    </vehicle>
      <vehicle id="veh20" type="Car0" depart="10.660003443396294" route="16">
    </vehicle>
      <vehicle id="veh21" type="Car0" depart="12.106587339570622" route="24">
    </vehicle>
      <vehicle id="veh22" type="Car0" depart="12.514311249717743" route="8">
    </vehicle>
      <vehicle id="veh23" type="Car0" depart="13.60649060129404" route="6">
    </vehicle>
      <vehicle id="veh24" type="Car0" depart="14.602120939990433" route="24">
    </vehicle>
      <vehicle id="veh25" type="Car0" depart="14.707529730073109" route="5">
    </vehicle>
      <vehicle id="veh26" type="Car0" depart="15.461482726481382" route="22">
    </vehicle>
      <vehicle id="veh27" type="Car0" depart="17.038927295083358" route="15">
    </vehicle>
      <vehicle id="veh28" type="Car0" depart="17.54652543142876" route="15">
    </vehicle>
      <vehicle id="veh29" type="Car0" depart="19.256068628291263" route="23">
    </vehicle>
      <vehicle id="veh30" type="Car0" depart="20.53054892571429" route="26">
    </vehicle>
      <vehicle id="veh31" type="Car0" depart="21.318527947265967" route="8">
    </vehicle>
      <vehicle id="veh32" type="Car0" depart="22.155461679402926" route="22">
    </vehicle>
      <vehicle id="veh33" type="Car0" depart="22.218089676707336" route="0">
    </vehicle>
      <vehicle id="veh34" type="Car0" depart="22.73328037016458" route="7">
    </vehicle>
      <vehicle id="veh35" type="Car0" depart="22.926950735841285" route="18">
    </vehicle>
      <vehicle id="veh36" type="Car0" depart="22.96960715160479" route="17">
    </vehicle>
      <vehicle id="veh37" type="Car0" depart="23.111176657182444" route="23">
    </vehicle>
      <vehicle id="veh38" type="Car0" depart="23.212078774128205" route="17">
    </vehicle>
      <vehicle id="veh39" type="Car0" depart="23.50196615834407" route="13">
    </vehicle>
      <vehicle id="veh40" type="Car0" depart="23.615583836217017" route="20">
    </vehicle>
      <vehicle id="veh41" type="Car0" depart="24.480354443889816" route="16">
    </vehicle>
      <vehicle id="veh42" type="Car0" depart="25.683590737250352" route="29">
    </vehicle>
      <vehicle id="veh43" type="Car0" depart="26.79858653593484" route="17">
    </vehicle>
      <vehicle id="veh44" type="Car0" depart="27.184322164506607" route="13">
    </vehicle>
      <vehicle id="veh45" type="Car0" depart="28.63588507242988" route="23">
    </vehicle>
      <vehicle id="veh46" type="Car0" depart="29.023015205803333" route="20">
    </vehicle>
      <vehicle id="veh47" type="Car0" depart="29.79663072503004" route="7">
    </vehicle>
      <vehicle id="veh48" type="Car0" depart="31.823564668021145" route="6">
    </vehicle>
      <vehicle id="veh49" type="Car0" depart="32.05958610776366" route="29">
    </vehicle>
      <vehicle id="veh50" type="Car0" depart="32.72939129919297" route="24">
    </vehicle>
      <vehicle id="veh51" type="Car0" depart="33.385011455147314" route="7">
    </vehicle>
      <vehicle id="veh52" type="Car0" depart="34.261806059563774" route="8">
    </vehicle>
      <vehicle id="veh53" type="Car0" depart="35.860295263709375" route="7">
    </vehicle>
      <vehicle id="veh54" type="Car0" depart="36.104501500028086" route="18">
    </vehicle>
      <vehicle id="veh55" type="Car0" depart="36.926632945734575" route="15">
    </vehicle>
      <vehicle id="veh56" type="Car0" depart="36.99200605555442" route="6">
    </vehicle>
      <vehicle id="veh57" type="Car0" depart="38.52751666250757" route="27">
    </vehicle>
      <vehicle id="veh58" type="Car0" depart="38.89059117120354" route="27">
    </vehicle>
      <vehicle id="veh59" type="Car0" depart="39.27497309475859" route="15">
    </vehicle>
      <vehicle id="veh60" type="Car0" depart="39.67850807920033" route="10">
    </vehicle>
      <vehicle id="veh61" type="Car0" depart="39.78760266354081" route="12">
    </vehicle>
      <vehicle id="veh62" type="Car0" depart="40.93275795993397" route="3">
    </vehicle>
      <vehicle id="veh63" type="Car0" depart="41.87995093197873" route="6">
    </vehicle>
      <vehicle id="veh64" type="Car0" depart="42.84791213431728" route="8">
    </vehicle>
      <vehicle id="veh65" type="Car0" depart="43.68039482475792" route="24">
    </vehicle>
      <vehicle id="veh66" type="Car0" depart="43.75820000601973" route="5">
    </vehicle>
      <vehicle id="veh67" type="Car0" depart="44.47610525084054" route="15">
    </vehicle>
      <vehicle id="veh68" type="Car0" depart="45.03659759368714" route="26">
    </vehicle>
      <vehicle id="veh69" type="Car0" depart="45.9654520220802" route="23">
    </vehicle>
      <vehicle id="veh70" type="Car0" depart="46.238096029754296" route="12">
    </vehicle>
      <vehicle id="veh71" type="Car0" depart="46.929586903942216" route="12">
    </vehicle>
      <vehicle id="veh72" type="Car0" depart="47.458481166681054" route="1">
    </vehicle>
      <vehicle id="veh73" type="Car0" depart="48.21696785118477" route="23">
    </vehicle>
      <vehicle id="veh74" type="Car0" depart="48.75371014425453" route="14">
    </vehicle>
      <vehicle id="veh75" type="Car0" depart="50.038915585957305" route="0">
    </vehicle>
      <vehicle id="veh76" type="Car0" depart="50.19137708851872" route="23">
    </vehicle>
      <vehicle id="veh77" type="Car0" depart="51.557996604186144" route="13">
    </vehicle>
      <vehicle id="veh78" type="Car0" depart="51.71485242201175" route="27">
    </vehicle>
      <vehicle id="veh79" type="Car0" depart="52.79741953827134" route="22">
    </vehicle>
      <vehicle id="veh80" type="Car0" depart="53.013979460038485" route="9">
    </vehicle>
      <vehicle id="veh81" type="Car0" depart="54.1037974675557" route="25">
    </vehicle>
      <vehicle id="veh82" type="Car0" depart="54.2167247750555" route="21">
    </vehicle>
      <vehicle id="veh83" type="Car0" depart="55.024810736225355" route="22">
    </vehicle>
      <vehicle id="veh84" type="Car0" depart="55.166408018764024" route="21">
    </vehicle>
      <vehicle id="veh85" type="Car0" depart="56.358129733879366" route="12">
    </vehicle>
      <vehicle id="veh86" type="Car0" depart="56.58951709924994" route="4">
    </vehicle>
      <vehicle id="veh87" type="Car0" depart="57.11103318480093" route="16">
    </vehicle>
      <vehicle id="veh88" type="Car0" depart="57.868655419802366" route="17">
    </vehicle>
      <vehicle id="veh89" type="Car0" depart="58.320409472473834" route="21">
    </vehicle>
      <vehicle id="veh90" type="Car0" depart="58.426384763872676" route="22">
    </vehicle>
</routes>