<!-- number of vehicles:50 -->
<!-- generated on 2022-01-05 17:42:12.879988 by "vehicleFlow.py cars_50_9.rou.xml -m 2 -r 1.5 -t 50" -->
<routes>
  <route id="0" edges="w_to_c1 c1_to_c2 c2_to_e"/>
  <route id="1" edges="n1_to_c1 c1_to_s1"/>
  <route id="2" edges="s1_to_c1 c1_to_n1"/>
  <route id="3" edges="n2_to_c2 c2_to_s2"/>
  <route id="4" edges="e_to_c2 c2_to_c1 c1_to_w"/>
  <route id="5" edges="s2_to_c2 c2_to_n2"/>
  <route id="6" edges="w_to_c1 c1_to_s1"/>
  <route id="7" edges="w_to_c1 c1_to_c2 c2_to_s2"/>
  <route id="8" edges="w_to_c1 c1_to_c2 c2_to_n2"/>
  <route id="9" edges="w_to_c1 c1_to_n1"/>
  <route id="10" edges="s1_to_c1 c1_to_c2 c2_to_s2"/>
  <route id="11" edges="s1_to_c1 c1_to_c2 c2_to_e"/>
  <route id="12" edges="s1_to_c1 c1_to_c2 c2_to_n2"/>
  <route id="13" edges="s1_to_c1 c1_to_w"/>
  <route id="14" edges="s2_to_c2 c2_to_e"/>
  <route id="15" edges="s2_to_c2 c2_to_c1 c1_to_n1"/>
  <route id="16" edges="s2_to_c2 c2_to_c1 c1_to_w"/>
  <route id="17" edges="s2_to_c2 c2_to_c1 c1_to_s1"/>
  <route id="18" edges="e_to_c2 c2_to_n2"/>
  <route id="19" edges="e_to_c2 c2_to_c1 c1_to_n1"/>
  <route id="20" edges="e_to_c2 c2_to_c1 c1_to_s1"/>
  <route id="21" edges="e_to_c2 c2_to_s2"/>
  <route id="22" edges="n2_to_c2 c2_to_c1 c1_to_n1"/>
  <route id="23" edges="n2_to_c2 c2_to_c1 c1_to_w"/>
  <route id="24" edges="n2_to_c2 c2_to_c1 c1_to_s1"/>
  <route id="25" edges="n2_to_c2 c2_to_e"/>
  <route id="26" edges="n1_to_c1 c1_to_w"/>
  <route id="27" edges="n1_to_c1 c1_to_c2 c2_to_s2"/>
  <route id="28" edges="n1_to_c1 c1_to_c2 c2_to_e"/>
  <route id="29" edges="n1_to_c1 c1_to_c2 c2_to_n2"/>

  <vType accel="4" decel="7.5" emergencyDecel="7.5" minGap="5.0" speedDev="0.1" speedFactor="1.2" id="Car0" maxSpeed="27.77" />

      <vehicle id="veh1" type="Car0" depart="0.22692088553061399" route="1">
    </vehicle>
      <vehicle id="veh2" type="Car0" depart="0.5088699643908385" route="28">
    </vehicle>
      <vehicle id="veh3" type="Car0" depart="0.7041709139218033" route="24">
    </vehicle>
      <vehicle id="veh4" type="Car0" depart="0.7363194452133023" route="7">
    </vehicle>
      <vehicle id="veh5" type="Car0" depart="0.8693487154528147" route="21">
    </vehicle>
      <vehicle id="veh6" type="Car0" depart="2.087218355672039" route="28">
    </vehicle>
      <vehicle id="veh7" type="Car0" depart="2.3476078175326225" route="4">
    </vehicle>
      <vehicle id="veh8" type="Car0" depart="3.3949339427500833" route="29">
    </vehicle>
      <vehicle id="veh9" type="Car0" depart="3.890866990184647" route="28">
    </vehicle>
      <vehicle id="veh10" type="Car0" depart="3.932631043608397" route="7">
    </vehicle>
      <vehicle id="veh11" type="Car0" depart="4.432823284982303" route="1">
    </vehicle>
      <vehicle id="veh12" type="Car0" depart="4.563639765795658" route="26">
    </vehicle>
      <vehicle id="veh13" type="Car0" depart="5.471206275597022" route="14">
    </vehicle>
      <vehicle id="veh14" type="Car0" depart="5.99608720952322" route="17">
    </vehicle>
      <vehicle id="veh15" type="Car0" depart="6.435294214239175" route="17">
    </vehicle>
      <vehicle id="veh16" type="Car0" depart="6.510858873731012" route="14">
    </vehicle>
      <vehicle id="veh17" type="Car0" depart="7.394748752209054" route="10">
    </vehicle>
      <vehicle id="veh18" type="Car0" depart="7.52470570916414" route="25">
    </vehicle>
      <vehicle id="veh19" type="Car0" depart="8.214330150764278" route="21">
    </vehicle>
      <vehicle id="veh20" type="Car0" depart="8.247289342334374" route="27">
    </vehicle>
      <vehicle id="veh21" type="Car0" depart="8.872272460534948" route="15">
    </vehicle>
      <vehicle id="veh22" type="Car0" depart="9.539323312437116" route="26">
    </vehicle>
      <vehicle id="veh23" type="Car0" depart="10.91919603142428" route="0">
    </vehicle>
      <vehicle id="veh24" type="Car0" depart="11.285950628982746" route="22">
    </vehicle>
      <vehicle id="veh25" type="Car0" depart="11.501788961746694" route="4">
    </vehicle>
      <vehicle id="veh26" type="Car0" depart="12.961104749866886" route="1">
    </vehicle>
      <vehicle id="veh27" type="Car0" depart="13.413011326735697" route="21">
    </vehicle>
      <vehicle id="veh28" type="Car0" depart="13.780961071802865" route="29">
    </vehicle>
      <vehicle id="veh29" type="Car0" depart="13.866285421522008" route="10">
    </vehicle>
      <vehicle id="veh30" type="Car0" depart="16.31332209654369" route="15">
    </vehicle>
      <vehicle id="veh31" type="Car0" depart="16.54418937130968" route="2">
    </vehicle>
      <vehicle id="veh32" type="Car0" depart="16.849878245021277" route="12">
    </vehicle>
      <vehicle id="veh33" type="Car0" depart="17.030603376082126" route="11">
    </vehicle>
      <vehicle id="veh34" type="Car0" depart="17.292460053809293" route="18">
    </vehicle>
      <vehicle id="veh35" type="Car0" depart="17.388033576751226" route="24">
    </vehicle>
      <vehicle id="veh36" type="Car0" depart="18.71138692124616" route="10">
    </vehicle>
      <vehicle id="veh37" type="Car0" depart="19.209329391340667" route="27">
    </vehicle>
      <vehicle id="veh38" type="Car0" depart="19.569132249084547" route="6">
    </vehicle>
      <vehicle id="veh39" type="Car0" depart="19.795284183197158" route="26">
    </vehicle>
      <vehicle id="veh40" type="Car0" depart="19.859558331987948" route="1">
    </vehicle>
      <vehicle id="veh41" type="Car0" depart="19.99844645712832" route="25">
    </vehicle>
      <vehicle id="veh42" type="Car0" depart="23.312375760350903" route="10">
    </vehicle>
      <vehicle id="veh43" type="Car0" depart="24.219868505819683" route="14">
    </vehicle>
      <vehicle id="veh44" type="Car0" depart="24.816556136566547" route="11">
    </vehicle>
      <vehicle id="veh45" type="Car0" depart="25.333007557019304" route="15">
    </vehicle>
      <vehicle id="veh46" type="Car0" depart="26.639431343814937" route="18">
    </vehicle>
      <vehicle id="veh47" type="Car0" depart="26.687603287510335" route="0">
    </vehicle>
      <vehicle id="veh48" type="Car0" depart="26.862931082063724" route="26">
    </vehicle>
      <vehicle id="veh49" type="Car0" depart="27.09161990297352" route="2">
    </vehicle>
      <vehicle id="veh50" type="Car0" depart="27.977156691646666" route="6">
    </vehicle>
</routes>