<!-- number of vehicles:30 -->
<!-- generated on 2022-01-05 17:42:11.212580 by "vehicleFlow.py cars_30_1.rou.xml -m 2 -r 1.5 -t 30" -->
<routes>
  <route id="0" edges="w_to_c1 c1_to_c2 c2_to_e"/>
  <route id="1" edges="n1_to_c1 c1_to_s1"/>
  <route id="2" edges="s1_to_c1 c1_to_n1"/>
  <route id="3" edges="n2_to_c2 c2_to_s2"/>
  <route id="4" edges="e_to_c2 c2_to_c1 c1_to_w"/>
  <route id="5" edges="s2_to_c2 c2_to_n2"/>
  <route id="6" edges="w_to_c1 c1_to_s1"/>
  <route id="7" edges="w_to_c1 c1_to_c2 c2_to_s2"/>
  <route id="8" edges="w_to_c1 c1_to_c2 c2_to_n2"/>
  <route id="9" edges="w_to_c1 c1_to_n1"/>
  <route id="10" edges="s1_to_c1 c1_to_c2 c2_to_s2"/>
  <route id="11" edges="s1_to_c1 c1_to_c2 c2_to_e"/>
  <route id="12" edges="s1_to_c1 c1_to_c2 c2_to_n2"/>
  <route id="13" edges="s1_to_c1 c1_to_w"/>
  <route id="14" edges="s2_to_c2 c2_to_e"/>
  <route id="15" edges="s2_to_c2 c2_to_c1 c1_to_n1"/>
  <route id="16" edges="s2_to_c2 c2_to_c1 c1_to_w"/>
  <route id="17" edges="s2_to_c2 c2_to_c1 c1_to_s1"/>
  <route id="18" edges="e_to_c2 c2_to_n2"/>
  <route id="19" edges="e_to_c2 c2_to_c1 c1_to_n1"/>
  <route id="20" edges="e_to_c2 c2_to_c1 c1_to_s1"/>
  <route id="21" edges="e_to_c2 c2_to_s2"/>
  <route id="22" edges="n2_to_c2 c2_to_c1 c1_to_n1"/>
  <route id="23" edges="n2_to_c2 c2_to_c1 c1_to_w"/>
  <route id="24" edges="n2_to_c2 c2_to_c1 c1_to_s1"/>
  <route id="25" edges="n2_to_c2 c2_to_e"/>
  <route id="26" edges="n1_to_c1 c1_to_w"/>
  <route id="27" edges="n1_to_c1 c1_to_c2 c2_to_s2"/>
  <route id="28" edges="n1_to_c1 c1_to_c2 c2_to_e"/>
  <route id="29" edges="n1_to_c1 c1_to_c2 c2_to_n2"/>

  <vType accel="4" decel="7.5" emergencyDecel="7.5" minGap="5.0" speedDev="0.1" speedFactor="1.2" id="Car0" maxSpeed="27.77" />

      <vehicle id="veh1" type="Car0" depart="0.1990517229886647" route="17">
    </vehicle>
      <vehicle id="veh2" type="Car0" depart="0.25378337590741135" route="15">
    </vehicle>
      <vehicle id="veh3" type="Car0" depart="2.046413925374458" route="26">
    </vehicle>
      <vehicle id="veh4" type="Car0" depart="2.056849409709679" route="15">
    </vehicle>
      <vehicle id="veh5" type="Car0" depart="4.047462714277506" route="6">
    </vehicle>
      <vehicle id="veh6" type="Car0" depart="4.0833454042980035" route="26">
    </vehicle>
      <vehicle id="veh7" type="Car0" depart="4.9670692924868005" route="28">
    </vehicle>
      <vehicle id="veh8" type="Car0" depart="6.674943542663128" route="21">
    </vehicle>
      <vehicle id="veh9" type="Car0" depart="8.36801426995462" route="17">
    </vehicle>
      <vehicle id="veh10" type="Car0" depart="9.090978937226273" route="27">
    </vehicle>
      <vehicle id="veh11" type="Car0" depart="9.564740989358752" route="28">
    </vehicle>
      <vehicle id="veh12" type="Car0" depart="10.935862031574086" route="27">
    </vehicle>
      <vehicle id="veh13" type="Car0" depart="10.965634052039604" route="18">
    </vehicle>
      <vehicle id="veh14" type="Car0" depart="11.956339540635069" route="17">
    </vehicle>
      <vehicle id="veh15" type="Car0" depart="12.080557147235783" route="25">
    </vehicle>
      <vehicle id="veh16" type="Car0" depart="12.227216570747348" route="18">
    </vehicle>
      <vehicle id="veh17" type="Car0" depart="12.505137045255047" route="17">
    </vehicle>
      <vehicle id="veh18" type="Car0" depart="12.623384213076255" route="28">
    </vehicle>
      <vehicle id="veh19" type="Car0" depart="12.966281676655825" route="25">
    </vehicle>
      <vehicle id="veh20" type="Car0" depart="13.042059661949137" route="10">
    </vehicle>
      <vehicle id="veh21" type="Car0" depart="14.037890316459047" route="17">
    </vehicle>
      <vehicle id="veh22" type="Car0" depart="14.23087023073609" route="4">
    </vehicle>
      <vehicle id="veh23" type="Car0" depart="14.733438117579812" route="26">
    </vehicle>
      <vehicle id="veh24" type="Car0" depart="15.162717056898197" route="28">
    </vehicle>
      <vehicle id="veh25" type="Car0" depart="15.871469588692344" route="13">
    </vehicle>
      <vehicle id="veh26" type="Car0" depart="17.70210822405894" route="18">
    </vehicle>
      <vehicle id="veh27" type="Car0" depart="17.833105725993754" route="15">
    </vehicle>
      <vehicle id="veh28" type="Car0" depart="18.191157914088443" route="10">
    </vehicle>
      <vehicle id="veh29" type="Car0" depart="18.457413735797136" route="20">
    </vehicle>
      <vehicle id="veh30" type="Car0" depart="20.729700951190527" route="1">
    </vehicle>
</routes>