<!-- number of vehicles:20 -->
<!-- generated on 2022-01-05 17:42:12.411702 by "vehicleFlow.py cars_20_7.rou.xml -m 2 -r 1.5 -t 20" -->
<routes>
  <route id="0" edges="w_to_c1 c1_to_c2 c2_to_e"/>
  <route id="1" edges="n1_to_c1 c1_to_s1"/>
  <route id="2" edges="s1_to_c1 c1_to_n1"/>
  <route id="3" edges="n2_to_c2 c2_to_s2"/>
  <route id="4" edges="e_to_c2 c2_to_c1 c1_to_w"/>
  <route id="5" edges="s2_to_c2 c2_to_n2"/>
  <route id="6" edges="w_to_c1 c1_to_s1"/>
  <route id="7" edges="w_to_c1 c1_to_c2 c2_to_s2"/>
  <route id="8" edges="w_to_c1 c1_to_c2 c2_to_n2"/>
  <route id="9" edges="w_to_c1 c1_to_n1"/>
  <route id="10" edges="s1_to_c1 c1_to_c2 c2_to_s2"/>
  <route id="11" edges="s1_to_c1 c1_to_c2 c2_to_e"/>
  <route id="12" edges="s1_to_c1 c1_to_c2 c2_to_n2"/>
  <route id="13" edges="s1_to_c1 c1_to_w"/>
  <route id="14" edges="s2_to_c2 c2_to_e"/>
  <route id="15" edges="s2_to_c2 c2_to_c1 c1_to_n1"/>
  <route id="16" edges="s2_to_c2 c2_to_c1 c1_to_w"/>
  <route id="17" edges="s2_to_c2 c2_to_c1 c1_to_s1"/>
  <route id="18" edges="e_to_c2 c2_to_n2"/>
  <route id="19" edges="e_to_c2 c2_to_c1 c1_to_n1"/>
  <route id="20" edges="e_to_c2 c2_to_c1 c1_to_s1"/>
  <route id="21" edges="e_to_c2 c2_to_s2"/>
  <route id="22" edges="n2_to_c2 c2_to_c1 c1_to_n1"/>
  <route id="23" edges="n2_to_c2 c2_to_c1 c1_to_w"/>
  <route id="24" edges="n2_to_c2 c2_to_c1 c1_to_s1"/>
  <route id="25" edges="n2_to_c2 c2_to_e"/>
  <route id="26" edges="n1_to_c1 c1_to_w"/>
  <route id="27" edges="n1_to_c1 c1_to_c2 c2_to_s2"/>
  <route id="28" edges="n1_to_c1 c1_to_c2 c2_to_e"/>
  <route id="29" edges="n1_to_c1 c1_to_c2 c2_to_n2"/>

  <vType accel="4" decel="7.5" emergencyDecel="7.5" minGap="5.0" speedDev="0.1" speedFactor="1.2" id="Car0" maxSpeed="27.77" />

      <vehicle id="veh1" type="Car0" depart="0.20792437471515357" route="10">
    </vehicle>
      <vehicle id="veh2" type="Car0" depart="1.5826074828794685" route="4">
    </vehicle>
      <vehicle id="veh3" type="Car0" depart="1.6070634567221973" route="13">
    </vehicle>
      <vehicle id="veh4" type="Car0" depart="2.9963051411510495" route="23">
    </vehicle>
      <vehicle id="veh5" type="Car0" depart="3.1362823803628377" route="16">
    </vehicle>
      <vehicle id="veh6" type="Car0" depart="4.083479501534232" route="16">
    </vehicle>
      <vehicle id="veh7" type="Car0" depart="6.405448441904774" route="3">
    </vehicle>
      <vehicle id="veh8" type="Car0" depart="8.806794598548" route="24">
    </vehicle>
      <vehicle id="veh9" type="Car0" depart="10.05613630719768" route="15">
    </vehicle>
      <vehicle id="veh10" type="Car0" depart="11.812533347478247" route="8">
    </vehicle>
      <vehicle id="veh11" type="Car0" depart="11.994300497793652" route="7">
    </vehicle>
      <vehicle id="veh12" type="Car0" depart="12.320536480716028" route="23">
    </vehicle>
      <vehicle id="veh13" type="Car0" depart="13.610526034789286" route="22">
    </vehicle>
      <vehicle id="veh14" type="Car0" depart="13.751129075515335" route="28">
    </vehicle>
      <vehicle id="veh15" type="Car0" depart="13.844376447975998" route="23">
    </vehicle>
      <vehicle id="veh16" type="Car0" depart="13.862345432414665" route="18">
    </vehicle>
      <vehicle id="veh17" type="Car0" depart="15.026073529977642" route="26">
    </vehicle>
      <vehicle id="veh18" type="Car0" depart="15.947655957254204" route="18">
    </vehicle>
      <vehicle id="veh19" type="Car0" depart="17.45586129741971" route="2">
    </vehicle>
      <vehicle id="veh20" type="Car0" depart="17.468212679129877" route="9">
    </vehicle>
</routes>