<!-- number of vehicles:60 -->
<!-- generated on 2022-01-05 17:42:12.288877 by "vehicleFlow.py cars_60_6.rou.xml -m 2 -r 1.5 -t 60" -->
<routes>
  <route id="0" edges="w_to_c1 c1_to_c2 c2_to_e"/>
  <route id="1" edges="n1_to_c1 c1_to_s1"/>
  <route id="2" edges="s1_to_c1 c1_to_n1"/>
  <route id="3" edges="n2_to_c2 c2_to_s2"/>
  <route id="4" edges="e_to_c2 c2_to_c1 c1_to_w"/>
  <route id="5" edges="s2_to_c2 c2_to_n2"/>
  <route id="6" edges="w_to_c1 c1_to_s1"/>
  <route id="7" edges="w_to_c1 c1_to_c2 c2_to_s2"/>
  <route id="8" edges="w_to_c1 c1_to_c2 c2_to_n2"/>
  <route id="9" edges="w_to_c1 c1_to_n1"/>
  <route id="10" edges="s1_to_c1 c1_to_c2 c2_to_s2"/>
  <route id="11" edges="s1_to_c1 c1_to_c2 c2_to_e"/>
  <route id="12" edges="s1_to_c1 c1_to_c2 c2_to_n2"/>
  <route id="13" edges="s1_to_c1 c1_to_w"/>
  <route id="14" edges="s2_to_c2 c2_to_e"/>
  <route id="15" edges="s2_to_c2 c2_to_c1 c1_to_n1"/>
  <route id="16" edges="s2_to_c2 c2_to_c1 c1_to_w"/>
  <route id="17" edges="s2_to_c2 c2_to_c1 c1_to_s1"/>
  <route id="18" edges="e_to_c2 c2_to_n2"/>
  <route id="19" edges="e_to_c2 c2_to_c1 c1_to_n1"/>
  <route id="20" edges="e_to_c2 c2_to_c1 c1_to_s1"/>
  <route id="21" edges="e_to_c2 c2_to_s2"/>
  <route id="22" edges="n2_to_c2 c2_to_c1 c1_to_n1"/>
  <route id="23" edges="n2_to_c2 c2_to_c1 c1_to_w"/>
  <route id="24" edges="n2_to_c2 c2_to_c1 c1_to_s1"/>
  <route id="25" edges="n2_to_c2 c2_to_e"/>
  <route id="26" edges="n1_to_c1 c1_to_w"/>
  <route id="27" edges="n1_to_c1 c1_to_c2 c2_to_s2"/>
  <route id="28" edges="n1_to_c1 c1_to_c2 c2_to_e"/>
  <route id="29" edges="n1_to_c1 c1_to_c2 c2_to_n2"/>

  <vType accel="4" decel="7.5" emergencyDecel="7.5" minGap="5.0" speedDev="0.1" speedFactor="1.2" id="Car0" maxSpeed="27.77" />

      <vehicle id="veh1" type="Car0" depart="0.10381229592940289" route="24">
    </vehicle>
      <vehicle id="veh2" type="Car0" depart="0.9978099474495284" route="1">
    </vehicle>
      <vehicle id="veh3" type="Car0" depart="1.3104769009277326" route="16">
    </vehicle>
      <vehicle id="veh4" type="Car0" depart="2.984688939920697" route="28">
    </vehicle>
      <vehicle id="veh5" type="Car0" depart="3.23875588187407" route="22">
    </vehicle>
      <vehicle id="veh6" type="Car0" depart="3.5296494398557625" route="13">
    </vehicle>
      <vehicle id="veh7" type="Car0" depart="4.331804342046664" route="3">
    </vehicle>
      <vehicle id="veh8" type="Car0" depart="5.482836015771224" route="22">
    </vehicle>
      <vehicle id="veh9" type="Car0" depart="5.981852549917996" route="18">
    </vehicle>
      <vehicle id="veh10" type="Car0" depart="6.69863716858928" route="9">
    </vehicle>
      <vehicle id="veh11" type="Car0" depart="7.023117458091812" route="0">
    </vehicle>
      <vehicle id="veh12" type="Car0" depart="7.4973322350722755" route="17">
    </vehicle>
      <vehicle id="veh13" type="Car0" depart="8.084229639777353" route="22">
    </vehicle>
      <vehicle id="veh14" type="Car0" depart="8.137413584481816" route="23">
    </vehicle>
      <vehicle id="veh15" type="Car0" depart="8.258455637560974" route="13">
    </vehicle>
      <vehicle id="veh16" type="Car0" depart="9.5279902623761" route="11">
    </vehicle>
      <vehicle id="veh17" type="Car0" depart="10.276284387607557" route="27">
    </vehicle>
      <vehicle id="veh18" type="Car0" depart="10.291225768263297" route="12">
    </vehicle>
      <vehicle id="veh19" type="Car0" depart="12.495877971008436" route="12">
    </vehicle>
      <vehicle id="veh20" type="Car0" depart="13.59608870585639" route="14">
    </vehicle>
      <vehicle id="veh21" type="Car0" depart="14.595192693394303" route="6">
    </vehicle>
      <vehicle id="veh22" type="Car0" depart="15.422708156754425" route="9">
    </vehicle>
      <vehicle id="veh23" type="Car0" depart="18.12723680626941" route="22">
    </vehicle>
      <vehicle id="veh24" type="Car0" depart="20.870048015762897" route="18">
    </vehicle>
      <vehicle id="veh25" type="Car0" depart="21.022836881319396" route="2">
    </vehicle>
      <vehicle id="veh26" type="Car0" depart="21.04437297809177" route="21">
    </vehicle>
      <vehicle id="veh27" type="Car0" depart="21.088051554852346" route="15">
    </vehicle>
      <vehicle id="veh28" type="Car0" depart="22.019118953453876" route="8">
    </vehicle>
      <vehicle id="veh29" type="Car0" depart="23.07988050971544" route="18">
    </vehicle>
      <vehicle id="veh30" type="Car0" depart="23.30111199369095" route="7">
    </vehicle>
      <vehicle id="veh31" type="Car0" depart="24.275374000266655" route="20">
    </vehicle>
      <vehicle id="veh32" type="Car0" depart="25.28748232087799" route="17">
    </vehicle>
      <vehicle id="veh33" type="Car0" depart="25.356560312171776" route="5">
    </vehicle>
      <vehicle id="veh34" type="Car0" depart="27.601240462715843" route="7">
    </vehicle>
      <vehicle id="veh35" type="Car0" depart="28.346741441644998" route="24">
    </vehicle>
      <vehicle id="veh36" type="Car0" depart="29.809911169135468" route="9">
    </vehicle>
      <vehicle id="veh37" type="Car0" depart="29.970472941477905" route="10">
    </vehicle>
      <vehicle id="veh38" type="Car0" depart="30.903782570986348" route="26">
    </vehicle>
      <vehicle id="veh39" type="Car0" depart="31.14016372442954" route="0">
    </vehicle>
      <vehicle id="veh40" type="Car0" depart="32.62680476134487" route="24">
    </vehicle>
      <vehicle id="veh41" type="Car0" depart="33.754434779361375" route="20">
    </vehicle>
      <vehicle id="veh42" type="Car0" depart="34.76958949128017" route="9">
    </vehicle>
      <vehicle id="veh43" type="Car0" depart="35.727707937404574" route="25">
    </vehicle>
      <vehicle id="veh44" type="Car0" depart="36.61276863934482" route="0">
    </vehicle>
      <vehicle id="veh45" type="Car0" depart="37.384021125445145" route="20">
    </vehicle>
      <vehicle id="veh46" type="Car0" depart="37.75728817790211" route="24">
    </vehicle>
      <vehicle id="veh47" type="Car0" depart="39.70180815036209" route="8">
    </vehicle>
      <vehicle id="veh48" type="Car0" depart="40.298639644332674" route="26">
    </vehicle>
      <vehicle id="veh49" type="Car0" depart="41.564232003409785" route="9">
    </vehicle>
      <vehicle id="veh50" type="Car0" depart="42.226279607667514" route="15">
    </vehicle>
      <vehicle id="veh51" type="Car0" depart="42.757130927274936" route="7">
    </vehicle>
      <vehicle id="veh52" type="Car0" depart="42.87272917050869" route="13">
    </vehicle>
      <vehicle id="veh53" type="Car0" depart="43.449777187277135" route="7">
    </vehicle>
      <vehicle id="veh54" type="Car0" depart="45.056786024206176" route="16">
    </vehicle>
      <vehicle id="veh55" type="Car0" depart="46.130857026409046" route="5">
    </vehicle>
      <vehicle id="veh56" type="Car0" depart="46.15251115942257" route="28">
    </vehicle>
      <vehicle id="veh57" type="Car0" depart="47.073859091830876" route="7">
    </vehicle>
      <vehicle id="veh58" type="Car0" depart="48.114948939143645" route="22">
    </vehicle>
      <vehicle id="veh59" type="Car0" depart="48.426792639661855" route="21">
    </vehicle>
      <vehicle id="veh60" type="Car0" depart="49.068618389824394" route="28">
    </vehicle>
</routes>