<!-- number of vehicles:20 -->
<!-- generated on 2022-01-05 17:42:12.207830 by "vehicleFlow.py cars_20_6.rou.xml -m 2 -r 1.5 -t 20" -->
<routes>
  <route id="0" edges="w_to_c1 c1_to_c2 c2_to_e"/>
  <route id="1" edges="n1_to_c1 c1_to_s1"/>
  <route id="2" edges="s1_to_c1 c1_to_n1"/>
  <route id="3" edges="n2_to_c2 c2_to_s2"/>
  <route id="4" edges="e_to_c2 c2_to_c1 c1_to_w"/>
  <route id="5" edges="s2_to_c2 c2_to_n2"/>
  <route id="6" edges="w_to_c1 c1_to_s1"/>
  <route id="7" edges="w_to_c1 c1_to_c2 c2_to_s2"/>
  <route id="8" edges="w_to_c1 c1_to_c2 c2_to_n2"/>
  <route id="9" edges="w_to_c1 c1_to_n1"/>
  <route id="10" edges="s1_to_c1 c1_to_c2 c2_to_s2"/>
  <route id="11" edges="s1_to_c1 c1_to_c2 c2_to_e"/>
  <route id="12" edges="s1_to_c1 c1_to_c2 c2_to_n2"/>
  <route id="13" edges="s1_to_c1 c1_to_w"/>
  <route id="14" edges="s2_to_c2 c2_to_e"/>
  <route id="15" edges="s2_to_c2 c2_to_c1 c1_to_n1"/>
  <route id="16" edges="s2_to_c2 c2_to_c1 c1_to_w"/>
  <route id="17" edges="s2_to_c2 c2_to_c1 c1_to_s1"/>
  <route id="18" edges="e_to_c2 c2_to_n2"/>
  <route id="19" edges="e_to_c2 c2_to_c1 c1_to_n1"/>
  <route id="20" edges="e_to_c2 c2_to_c1 c1_to_s1"/>
  <route id="21" edges="e_to_c2 c2_to_s2"/>
  <route id="22" edges="n2_to_c2 c2_to_c1 c1_to_n1"/>
  <route id="23" edges="n2_to_c2 c2_to_c1 c1_to_w"/>
  <route id="24" edges="n2_to_c2 c2_to_c1 c1_to_s1"/>
  <route id="25" edges="n2_to_c2 c2_to_e"/>
  <route id="26" edges="n1_to_c1 c1_to_w"/>
  <route id="27" edges="n1_to_c1 c1_to_c2 c2_to_s2"/>
  <route id="28" edges="n1_to_c1 c1_to_c2 c2_to_e"/>
  <route id="29" edges="n1_to_c1 c1_to_c2 c2_to_n2"/>

  <vType accel="4" decel="7.5" emergencyDecel="7.5" minGap="5.0" speedDev="0.1" speedFactor="1.2" id="Car0" maxSpeed="27.77" />

      <vehicle id="veh1" type="Car0" depart="0.8399849732742375" route="20">
    </vehicle>
      <vehicle id="veh2" type="Car0" depart="1.4258366211091142" route="27">
    </vehicle>
      <vehicle id="veh3" type="Car0" depart="1.639387808762746" route="22">
    </vehicle>
      <vehicle id="veh4" type="Car0" depart="2.5444808956046563" route="10">
    </vehicle>
      <vehicle id="veh5" type="Car0" depart="3.483323439914565" route="24">
    </vehicle>
      <vehicle id="veh6" type="Car0" depart="4.08824078526982" route="0">
    </vehicle>
      <vehicle id="veh7" type="Car0" depart="4.614555969573538" route="11">
    </vehicle>
      <vehicle id="veh8" type="Car0" depart="4.850499618673868" route="8">
    </vehicle>
      <vehicle id="veh9" type="Car0" depart="4.851578572292215" route="27">
    </vehicle>
      <vehicle id="veh10" type="Car0" depart="5.00324894541751" route="2">
    </vehicle>
      <vehicle id="veh11" type="Car0" depart="6.327678013517" route="8">
    </vehicle>
      <vehicle id="veh12" type="Car0" depart="6.5859594433016" route="26">
    </vehicle>
      <vehicle id="veh13" type="Car0" depart="6.784548299733775" route="1">
    </vehicle>
      <vehicle id="veh14" type="Car0" depart="7.729353438313543" route="5">
    </vehicle>
      <vehicle id="veh15" type="Car0" depart="13.016758973134884" route="9">
    </vehicle>
      <vehicle id="veh16" type="Car0" depart="13.161018187135051" route="22">
    </vehicle>
      <vehicle id="veh17" type="Car0" depart="13.42657319969419" route="25">
    </vehicle>
      <vehicle id="veh18" type="Car0" depart="15.7507964924093" route="10">
    </vehicle>
      <vehicle id="veh19" type="Car0" depart="16.01225219145479" route="19">
    </vehicle>
      <vehicle id="veh20" type="Car0" depart="16.25369568201952" route="18">
    </vehicle>
</routes>