<!-- number of vehicles:40 -->
<!-- generated on 2022-01-05 17:42:12.249463 by "vehicleFlow.py cars_40_6.rou.xml -m 2 -r 1.5 -t 40" -->
<routes>
  <route id="0" edges="w_to_c1 c1_to_c2 c2_to_e"/>
  <route id="1" edges="n1_to_c1 c1_to_s1"/>
  <route id="2" edges="s1_to_c1 c1_to_n1"/>
  <route id="3" edges="n2_to_c2 c2_to_s2"/>
  <route id="4" edges="e_to_c2 c2_to_c1 c1_to_w"/>
  <route id="5" edges="s2_to_c2 c2_to_n2"/>
  <route id="6" edges="w_to_c1 c1_to_s1"/>
  <route id="7" edges="w_to_c1 c1_to_c2 c2_to_s2"/>
  <route id="8" edges="w_to_c1 c1_to_c2 c2_to_n2"/>
  <route id="9" edges="w_to_c1 c1_to_n1"/>
  <route id="10" edges="s1_to_c1 c1_to_c2 c2_to_s2"/>
  <route id="11" edges="s1_to_c1 c1_to_c2 c2_to_e"/>
  <route id="12" edges="s1_to_c1 c1_to_c2 c2_to_n2"/>
  <route id="13" edges="s1_to_c1 c1_to_w"/>
  <route id="14" edges="s2_to_c2 c2_to_e"/>
  <route id="15" edges="s2_to_c2 c2_to_c1 c1_to_n1"/>
  <route id="16" edges="s2_to_c2 c2_to_c1 c1_to_w"/>
  <route id="17" edges="s2_to_c2 c2_to_c1 c1_to_s1"/>
  <route id="18" edges="e_to_c2 c2_to_n2"/>
  <route id="19" edges="e_to_c2 c2_to_c1 c1_to_n1"/>
  <route id="20" edges="e_to_c2 c2_to_c1 c1_to_s1"/>
  <route id="21" edges="e_to_c2 c2_to_s2"/>
  <route id="22" edges="n2_to_c2 c2_to_c1 c1_to_n1"/>
  <route id="23" edges="n2_to_c2 c2_to_c1 c1_to_w"/>
  <route id="24" edges="n2_to_c2 c2_to_c1 c1_to_s1"/>
  <route id="25" edges="n2_to_c2 c2_to_e"/>
  <route id="26" edges="n1_to_c1 c1_to_w"/>
  <route id="27" edges="n1_to_c1 c1_to_c2 c2_to_s2"/>
  <route id="28" edges="n1_to_c1 c1_to_c2 c2_to_e"/>
  <route id="29" edges="n1_to_c1 c1_to_c2 c2_to_n2"/>

  <vType accel="4" decel="7.5" emergencyDecel="7.5" minGap="5.0" speedDev="0.1" speedFactor="1.2" id="Car0" maxSpeed="27.77" />

      <vehicle id="veh1" type="Car0" depart="0.9396745522070534" route="2">
    </vehicle>
      <vehicle id="veh2" type="Car0" depart="3.9150798185731635" route="12">
    </vehicle>
      <vehicle id="veh3" type="Car0" depart="5.0539571353507435" route="21">
    </vehicle>
      <vehicle id="veh4" type="Car0" depart="5.094637422732971" route="13">
    </vehicle>
      <vehicle id="veh5" type="Car0" depart="5.726403817438216" route="18">
    </vehicle>
      <vehicle id="veh6" type="Car0" depart="6.475419639852394" route="3">
    </vehicle>
      <vehicle id="veh7" type="Car0" depart="6.932064048652426" route="17">
    </vehicle>
      <vehicle id="veh8" type="Car0" depart="7.279675531267729" route="9">
    </vehicle>
      <vehicle id="veh9" type="Car0" depart="7.374131509058289" route="6">
    </vehicle>
      <vehicle id="veh10" type="Car0" depart="7.5226429292092485" route="25">
    </vehicle>
      <vehicle id="veh11" type="Car0" depart="8.341013291889066" route="11">
    </vehicle>
      <vehicle id="veh12" type="Car0" depart="9.071600232761215" route="22">
    </vehicle>
      <vehicle id="veh13" type="Car0" depart="9.267400146497534" route="0">
    </vehicle>
      <vehicle id="veh14" type="Car0" depart="9.30583959265681" route="1">
    </vehicle>
      <vehicle id="veh15" type="Car0" depart="9.40880460311364" route="14">
    </vehicle>
      <vehicle id="veh16" type="Car0" depart="9.847663313914424" route="19">
    </vehicle>
      <vehicle id="veh17" type="Car0" depart="10.402538202972332" route="7">
    </vehicle>
      <vehicle id="veh18" type="Car0" depart="11.427446486750814" route="13">
    </vehicle>
      <vehicle id="veh19" type="Car0" depart="12.468533897872486" route="2">
    </vehicle>
      <vehicle id="veh20" type="Car0" depart="12.53228750646809" route="0">
    </vehicle>
      <vehicle id="veh21" type="Car0" depart="13.599064458358137" route="0">
    </vehicle>
      <vehicle id="veh22" type="Car0" depart="14.866113125628454" route="10">
    </vehicle>
      <vehicle id="veh23" type="Car0" depart="15.104607087346482" route="21">
    </vehicle>
      <vehicle id="veh24" type="Car0" depart="15.260253445709406" route="14">
    </vehicle>
      <vehicle id="veh25" type="Car0" depart="16.660239876780246" route="25">
    </vehicle>
      <vehicle id="veh26" type="Car0" depart="17.8802504284262" route="20">
    </vehicle>
      <vehicle id="veh27" type="Car0" depart="19.129273464203752" route="0">
    </vehicle>
      <vehicle id="veh28" type="Car0" depart="20.881950606160206" route="26">
    </vehicle>
      <vehicle id="veh29" type="Car0" depart="20.90533057993916" route="18">
    </vehicle>
      <vehicle id="veh30" type="Car0" depart="20.983097732253064" route="22">
    </vehicle>
      <vehicle id="veh31" type="Car0" depart="21.495793953313157" route="17">
    </vehicle>
      <vehicle id="veh32" type="Car0" depart="21.590744783501044" route="21">
    </vehicle>
      <vehicle id="veh33" type="Car0" depart="22.195878053732912" route="12">
    </vehicle>
      <vehicle id="veh34" type="Car0" depart="22.70038386783684" route="19">
    </vehicle>
      <vehicle id="veh35" type="Car0" depart="22.87106721929805" route="28">
    </vehicle>
      <vehicle id="veh36" type="Car0" depart="23.401063971713963" route="23">
    </vehicle>
      <vehicle id="veh37" type="Car0" depart="23.418811155646278" route="12">
    </vehicle>
      <vehicle id="veh38" type="Car0" depart="24.322857532895235" route="5">
    </vehicle>
      <vehicle id="veh39" type="Car0" depart="25.06045036845133" route="28">
    </vehicle>
      <vehicle id="veh40" type="Car0" depart="26.1194835850269" route="9">
    </vehicle>
</routes>