<!-- number of vehicles:60 -->
<!-- generated on 2022-01-05 17:42:12.901538 by "vehicleFlow.py cars_60_9.rou.xml -m 2 -r 1.5 -t 60" -->
<routes>
  <route id="0" edges="w_to_c1 c1_to_c2 c2_to_e"/>
  <route id="1" edges="n1_to_c1 c1_to_s1"/>
  <route id="2" edges="s1_to_c1 c1_to_n1"/>
  <route id="3" edges="n2_to_c2 c2_to_s2"/>
  <route id="4" edges="e_to_c2 c2_to_c1 c1_to_w"/>
  <route id="5" edges="s2_to_c2 c2_to_n2"/>
  <route id="6" edges="w_to_c1 c1_to_s1"/>
  <route id="7" edges="w_to_c1 c1_to_c2 c2_to_s2"/>
  <route id="8" edges="w_to_c1 c1_to_c2 c2_to_n2"/>
  <route id="9" edges="w_to_c1 c1_to_n1"/>
  <route id="10" edges="s1_to_c1 c1_to_c2 c2_to_s2"/>
  <route id="11" edges="s1_to_c1 c1_to_c2 c2_to_e"/>
  <route id="12" edges="s1_to_c1 c1_to_c2 c2_to_n2"/>
  <route id="13" edges="s1_to_c1 c1_to_w"/>
  <route id="14" edges="s2_to_c2 c2_to_e"/>
  <route id="15" edges="s2_to_c2 c2_to_c1 c1_to_n1"/>
  <route id="16" edges="s2_to_c2 c2_to_c1 c1_to_w"/>
  <route id="17" edges="s2_to_c2 c2_to_c1 c1_to_s1"/>
  <route id="18" edges="e_to_c2 c2_to_n2"/>
  <route id="19" edges="e_to_c2 c2_to_c1 c1_to_n1"/>
  <route id="20" edges="e_to_c2 c2_to_c1 c1_to_s1"/>
  <route id="21" edges="e_to_c2 c2_to_s2"/>
  <route id="22" edges="n2_to_c2 c2_to_c1 c1_to_n1"/>
  <route id="23" edges="n2_to_c2 c2_to_c1 c1_to_w"/>
  <route id="24" edges="n2_to_c2 c2_to_c1 c1_to_s1"/>
  <route id="25" edges="n2_to_c2 c2_to_e"/>
  <route id="26" edges="n1_to_c1 c1_to_w"/>
  <route id="27" edges="n1_to_c1 c1_to_c2 c2_to_s2"/>
  <route id="28" edges="n1_to_c1 c1_to_c2 c2_to_e"/>
  <route id="29" edges="n1_to_c1 c1_to_c2 c2_to_n2"/>

  <vType accel="4" decel="7.5" emergencyDecel="7.5" minGap="5.0" speedDev="0.1" speedFactor="1.2" id="Car0" maxSpeed="27.77" />

      <vehicle id="veh1" type="Car0" depart="0.5080673493610667" route="17">
    </vehicle>
      <vehicle id="veh2" type="Car0" depart="0.8013432377518204" route="6">
    </vehicle>
      <vehicle id="veh3" type="Car0" depart="2.4014200222461657" route="9">
    </vehicle>
      <vehicle id="veh4" type="Car0" depart="2.709659099990641" route="24">
    </vehicle>
      <vehicle id="veh5" type="Car0" depart="2.9455651821088353" route="16">
    </vehicle>
      <vehicle id="veh6" type="Car0" depart="3.1668533314640133" route="14">
    </vehicle>
      <vehicle id="veh7" type="Car0" depart="3.60525236771194" route="20">
    </vehicle>
      <vehicle id="veh8" type="Car0" depart="4.463483971998544" route="11">
    </vehicle>
      <vehicle id="veh9" type="Car0" depart="5.461976393214416" route="25">
    </vehicle>
      <vehicle id="veh10" type="Car0" depart="5.612573227688882" route="8">
    </vehicle>
      <vehicle id="veh11" type="Car0" depart="5.784080912036838" route="4">
    </vehicle>
      <vehicle id="veh12" type="Car0" depart="5.912719289307102" route="16">
    </vehicle>
      <vehicle id="veh13" type="Car0" depart="6.5404251962460025" route="29">
    </vehicle>
      <vehicle id="veh14" type="Car0" depart="6.833610573961085" route="22">
    </vehicle>
      <vehicle id="veh15" type="Car0" depart="6.858934374494852" route="25">
    </vehicle>
      <vehicle id="veh16" type="Car0" depart="7.51835937359582" route="18">
    </vehicle>
      <vehicle id="veh17" type="Car0" depart="8.881493324553293" route="5">
    </vehicle>
      <vehicle id="veh18" type="Car0" depart="10.571048273862434" route="27">
    </vehicle>
      <vehicle id="veh19" type="Car0" depart="11.176560991018723" route="16">
    </vehicle>
      <vehicle id="veh20" type="Car0" depart="12.118196320338434" route="9">
    </vehicle>
      <vehicle id="veh21" type="Car0" depart="12.849579122238925" route="3">
    </vehicle>
      <vehicle id="veh22" type="Car0" depart="14.266437592954235" route="3">
    </vehicle>
      <vehicle id="veh23" type="Car0" depart="15.14688430378727" route="20">
    </vehicle>
      <vehicle id="veh24" type="Car0" depart="15.372975474938439" route="2">
    </vehicle>
      <vehicle id="veh25" type="Car0" depart="16.20978056911922" route="8">
    </vehicle>
      <vehicle id="veh26" type="Car0" depart="16.833606942219504" route="23">
    </vehicle>
      <vehicle id="veh27" type="Car0" depart="16.921003750499604" route="28">
    </vehicle>
      <vehicle id="veh28" type="Car0" depart="17.010780907528364" route="0">
    </vehicle>
      <vehicle id="veh29" type="Car0" depart="17.788365768122723" route="6">
    </vehicle>
      <vehicle id="veh30" type="Car0" depart="18.86558893881368" route="0">
    </vehicle>
      <vehicle id="veh31" type="Car0" depart="18.903493172141108" route="6">
    </vehicle>
      <vehicle id="veh32" type="Car0" depart="19.4632519847659" route="22">
    </vehicle>
      <vehicle id="veh33" type="Car0" depart="19.586677768603476" route="1">
    </vehicle>
      <vehicle id="veh34" type="Car0" depart="20.035331565309612" route="28">
    </vehicle>
      <vehicle id="veh35" type="Car0" depart="20.471021549811226" route="17">
    </vehicle>
      <vehicle id="veh36" type="Car0" depart="20.562849476390063" route="2">
    </vehicle>
      <vehicle id="veh37" type="Car0" depart="21.452362559391307" route="8">
    </vehicle>
      <vehicle id="veh38" type="Car0" depart="21.88090968003068" route="17">
    </vehicle>
      <vehicle id="veh39" type="Car0" depart="22.015410654971376" route="12">
    </vehicle>
      <vehicle id="veh40" type="Car0" depart="23.016258202439026" route="10">
    </vehicle>
      <vehicle id="veh41" type="Car0" depart="23.899579211618793" route="2">
    </vehicle>
      <vehicle id="veh42" type="Car0" depart="24.41724942987804" route="14">
    </vehicle>
      <vehicle id="veh43" type="Car0" depart="24.726484010011617" route="20">
    </vehicle>
      <vehicle id="veh44" type="Car0" depart="25.08469991375368" route="23">
    </vehicle>
      <vehicle id="veh45" type="Car0" depart="25.71929983840666" route="8">
    </vehicle>
      <vehicle id="veh46" type="Car0" depart="25.942947027360884" route="4">
    </vehicle>
      <vehicle id="veh47" type="Car0" depart="26.57062931691718" route="21">
    </vehicle>
      <vehicle id="veh48" type="Car0" depart="27.018559705452983" route="21">
    </vehicle>
      <vehicle id="veh49" type="Car0" depart="27.899125708182165" route="20">
    </vehicle>
      <vehicle id="veh50" type="Car0" depart="28.061277184245824" route="3">
    </vehicle>
      <vehicle id="veh51" type="Car0" depart="28.792902883728352" route="7">
    </vehicle>
      <vehicle id="veh52" type="Car0" depart="29.3257997231129" route="5">
    </vehicle>
      <vehicle id="veh53" type="Car0" depart="29.862512376532262" route="18">
    </vehicle>
      <vehicle id="veh54" type="Car0" depart="30.033147585300725" route="13">
    </vehicle>
      <vehicle id="veh55" type="Car0" depart="30.773457858719308" route="8">
    </vehicle>
      <vehicle id="veh56" type="Car0" depart="31.335932696631367" route="3">
    </vehicle>
      <vehicle id="veh57" type="Car0" depart="32.083324546278305" route="4">
    </vehicle>
      <vehicle id="veh58" type="Car0" depart="33.61400249507761" route="12">
    </vehicle>
      <vehicle id="veh59" type="Car0" depart="33.835300501866534" route="5">
    </vehicle>
      <vehicle id="veh60" type="Car0" depart="35.821363723877646" route="13">
    </vehicle>
</routes>