<!-- number of vehicles:60 -->
<!-- generated on 2022-01-05 17:42:11.478306 by "vehicleFlow.py cars_60_2.rou.xml -m 2 -r 1.5 -t 60" -->
<routes>
  <route id="0" edges="w_to_c1 c1_to_c2 c2_to_e"/>
  <route id="1" edges="n1_to_c1 c1_to_s1"/>
  <route id="2" edges="s1_to_c1 c1_to_n1"/>
  <route id="3" edges="n2_to_c2 c2_to_s2"/>
  <route id="4" edges="e_to_c2 c2_to_c1 c1_to_w"/>
  <route id="5" edges="s2_to_c2 c2_to_n2"/>
  <route id="6" edges="w_to_c1 c1_to_s1"/>
  <route id="7" edges="w_to_c1 c1_to_c2 c2_to_s2"/>
  <route id="8" edges="w_to_c1 c1_to_c2 c2_to_n2"/>
  <route id="9" edges="w_to_c1 c1_to_n1"/>
  <route id="10" edges="s1_to_c1 c1_to_c2 c2_to_s2"/>
  <route id="11" edges="s1_to_c1 c1_to_c2 c2_to_e"/>
  <route id="12" edges="s1_to_c1 c1_to_c2 c2_to_n2"/>
  <route id="13" edges="s1_to_c1 c1_to_w"/>
  <route id="14" edges="s2_to_c2 c2_to_e"/>
  <route id="15" edges="s2_to_c2 c2_to_c1 c1_to_n1"/>
  <route id="16" edges="s2_to_c2 c2_to_c1 c1_to_w"/>
  <route id="17" edges="s2_to_c2 c2_to_c1 c1_to_s1"/>
  <route id="18" edges="e_to_c2 c2_to_n2"/>
  <route id="19" edges="e_to_c2 c2_to_c1 c1_to_n1"/>
  <route id="20" edges="e_to_c2 c2_to_c1 c1_to_s1"/>
  <route id="21" edges="e_to_c2 c2_to_s2"/>
  <route id="22" edges="n2_to_c2 c2_to_c1 c1_to_n1"/>
  <route id="23" edges="n2_to_c2 c2_to_c1 c1_to_w"/>
  <route id="24" edges="n2_to_c2 c2_to_c1 c1_to_s1"/>
  <route id="25" edges="n2_to_c2 c2_to_e"/>
  <route id="26" edges="n1_to_c1 c1_to_w"/>
  <route id="27" edges="n1_to_c1 c1_to_c2 c2_to_s2"/>
  <route id="28" edges="n1_to_c1 c1_to_c2 c2_to_e"/>
  <route id="29" edges="n1_to_c1 c1_to_c2 c2_to_n2"/>

  <vType accel="4" decel="7.5" emergencyDecel="7.5" minGap="5.0" speedDev="0.1" speedFactor="1.2" id="Car0" maxSpeed="27.77" />

      <vehicle id="veh1" type="Car0" depart="0.963733061257032" route="18">
    </vehicle>
      <vehicle id="veh2" type="Car0" depart="1.186879137019531" route="16">
    </vehicle>
      <vehicle id="veh3" type="Car0" depart="2.975050910663236" route="13">
    </vehicle>
      <vehicle id="veh4" type="Car0" depart="5.252946547921297" route="21">
    </vehicle>
      <vehicle id="veh5" type="Car0" depart="5.379065001944995" route="25">
    </vehicle>
      <vehicle id="veh6" type="Car0" depart="5.492815378582186" route="27">
    </vehicle>
      <vehicle id="veh7" type="Car0" depart="5.770758889568216" route="27">
    </vehicle>
      <vehicle id="veh8" type="Car0" depart="5.819251724255718" route="2">
    </vehicle>
      <vehicle id="veh9" type="Car0" depart="6.0663776869596955" route="22">
    </vehicle>
      <vehicle id="veh10" type="Car0" depart="7.641690041133194" route="28">
    </vehicle>
      <vehicle id="veh11" type="Car0" depart="8.75723024773823" route="6">
    </vehicle>
      <vehicle id="veh12" type="Car0" depart="8.858676098015245" route="29">
    </vehicle>
      <vehicle id="veh13" type="Car0" depart="9.329406037888472" route="10">
    </vehicle>
      <vehicle id="veh14" type="Car0" depart="11.192434539039507" route="1">
    </vehicle>
      <vehicle id="veh15" type="Car0" depart="11.553665845608508" route="25">
    </vehicle>
      <vehicle id="veh16" type="Car0" depart="11.975417062769258" route="29">
    </vehicle>
      <vehicle id="veh17" type="Car0" depart="12.16617031979949" route="17">
    </vehicle>
      <vehicle id="veh18" type="Car0" depart="14.090369461768695" route="5">
    </vehicle>
      <vehicle id="veh19" type="Car0" depart="17.572114308229974" route="6">
    </vehicle>
      <vehicle id="veh20" type="Car0" depart="19.205544731899636" route="25">
    </vehicle>
      <vehicle id="veh21" type="Car0" depart="19.755266228624198" route="23">
    </vehicle>
      <vehicle id="veh22" type="Car0" depart="20.33918366059503" route="21">
    </vehicle>
      <vehicle id="veh23" type="Car0" depart="20.594555597108116" route="28">
    </vehicle>
      <vehicle id="veh24" type="Car0" depart="22.05620008474849" route="4">
    </vehicle>
      <vehicle id="veh25" type="Car0" depart="23.458352181540423" route="20">
    </vehicle>
      <vehicle id="veh26" type="Car0" depart="24.053287955193323" route="23">
    </vehicle>
      <vehicle id="veh27" type="Car0" depart="24.517021791091814" route="1">
    </vehicle>
      <vehicle id="veh28" type="Car0" depart="24.539995249216986" route="26">
    </vehicle>
      <vehicle id="veh29" type="Car0" depart="24.679549597916413" route="4">
    </vehicle>
      <vehicle id="veh30" type="Car0" depart="25.362633380185688" route="12">
    </vehicle>
      <vehicle id="veh31" type="Car0" depart="26.011907547432656" route="19">
    </vehicle>
      <vehicle id="veh32" type="Car0" depart="26.317117028704363" route="19">
    </vehicle>
      <vehicle id="veh33" type="Car0" depart="26.957428971296974" route="8">
    </vehicle>
      <vehicle id="veh34" type="Car0" depart="27.090606967284945" route="2">
    </vehicle>
      <vehicle id="veh35" type="Car0" depart="27.140914704896748" route="22">
    </vehicle>
      <vehicle id="veh36" type="Car0" depart="27.204535206623213" route="26">
    </vehicle>
      <vehicle id="veh37" type="Car0" depart="29.332578289172606" route="25">
    </vehicle>
      <vehicle id="veh38" type="Car0" depart="29.991607825881545" route="29">
    </vehicle>
      <vehicle id="veh39" type="Car0" depart="30.406062072221992" route="11">
    </vehicle>
      <vehicle id="veh40" type="Car0" depart="30.908857800768466" route="2">
    </vehicle>
      <vehicle id="veh41" type="Car0" depart="30.970902123465716" route="26">
    </vehicle>
      <vehicle id="veh42" type="Car0" depart="31.551809711749325" route="23">
    </vehicle>
      <vehicle id="veh43" type="Car0" depart="31.767541716449763" route="28">
    </vehicle>
      <vehicle id="veh44" type="Car0" depart="34.47633890257248" route="23">
    </vehicle>
      <vehicle id="veh45" type="Car0" depart="34.58481628929316" route="19">
    </vehicle>
      <vehicle id="veh46" type="Car0" depart="34.694799151542426" route="11">
    </vehicle>
      <vehicle id="veh47" type="Car0" depart="35.58231332076214" route="15">
    </vehicle>
      <vehicle id="veh48" type="Car0" depart="35.8291276709102" route="14">
    </vehicle>
      <vehicle id="veh49" type="Car0" depart="35.83397226950589" route="20">
    </vehicle>
      <vehicle id="veh50" type="Car0" depart="36.87756994470698" route="29">
    </vehicle>
      <vehicle id="veh51" type="Car0" depart="37.59418371882915" route="23">
    </vehicle>
      <vehicle id="veh52" type="Car0" depart="37.64704459068579" route="11">
    </vehicle>
      <vehicle id="veh53" type="Car0" depart="39.14112369335007" route="4">
    </vehicle>
      <vehicle id="veh54" type="Car0" depart="39.43421392920138" route="12">
    </vehicle>
      <vehicle id="veh55" type="Car0" depart="39.7677839538955" route="5">
    </vehicle>
      <vehicle id="veh56" type="Car0" depart="40.649768880728004" route="28">
    </vehicle>
      <vehicle id="veh57" type="Car0" depart="43.378535293355505" route="26">
    </vehicle>
      <vehicle id="veh58" type="Car0" depart="45.389677436985714" route="19">
    </vehicle>
      <vehicle id="veh59" type="Car0" depart="45.45202652394669" route="13">
    </vehicle>
      <vehicle id="veh60" type="Car0" depart="45.63144578169327" route="18">
    </vehicle>
</routes>