<!-- number of vehicles:90 -->
<!-- generated on 2022-01-05 17:42:12.553937 by "vehicleFlow.py cars_90_7.rou.xml -m 2 -r 1.5 -t 90" -->
<routes>
  <route id="0" edges="w_to_c1 c1_to_c2 c2_to_e"/>
  <route id="1" edges="n1_to_c1 c1_to_s1"/>
  <route id="2" edges="s1_to_c1 c1_to_n1"/>
  <route id="3" edges="n2_to_c2 c2_to_s2"/>
  <route id="4" edges="e_to_c2 c2_to_c1 c1_to_w"/>
  <route id="5" edges="s2_to_c2 c2_to_n2"/>
  <route id="6" edges="w_to_c1 c1_to_s1"/>
  <route id="7" edges="w_to_c1 c1_to_c2 c2_to_s2"/>
  <route id="8" edges="w_to_c1 c1_to_c2 c2_to_n2"/>
  <route id="9" edges="w_to_c1 c1_to_n1"/>
  <route id="10" edges="s1_to_c1 c1_to_c2 c2_to_s2"/>
  <route id="11" edges="s1_to_c1 c1_to_c2 c2_to_e"/>
  <route id="12" edges="s1_to_c1 c1_to_c2 c2_to_n2"/>
  <route id="13" edges="s1_to_c1 c1_to_w"/>
  <route id="14" edges="s2_to_c2 c2_to_e"/>
  <route id="15" edges="s2_to_c2 c2_to_c1 c1_to_n1"/>
  <route id="16" edges="s2_to_c2 c2_to_c1 c1_to_w"/>
  <route id="17" edges="s2_to_c2 c2_to_c1 c1_to_s1"/>
  <route id="18" edges="e_to_c2 c2_to_n2"/>
  <route id="19" edges="e_to_c2 c2_to_c1 c1_to_n1"/>
  <route id="20" edges="e_to_c2 c2_to_c1 c1_to_s1"/>
  <route id="21" edges="e_to_c2 c2_to_s2"/>
  <route id="22" edges="n2_to_c2 c2_to_c1 c1_to_n1"/>
  <route id="23" edges="n2_to_c2 c2_to_c1 c1_to_w"/>
  <route id="24" edges="n2_to_c2 c2_to_c1 c1_to_s1"/>
  <route id="25" edges="n2_to_c2 c2_to_e"/>
  <route id="26" edges="n1_to_c1 c1_to_w"/>
  <route id="27" edges="n1_to_c1 c1_to_c2 c2_to_s2"/>
  <route id="28" edges="n1_to_c1 c1_to_c2 c2_to_e"/>
  <route id="29" edges="n1_to_c1 c1_to_c2 c2_to_n2"/>

  <vType accel="4" decel="7.5" emergencyDecel="7.5" minGap="5.0" speedDev="0.1" speedFactor="1.2" id="Car0" maxSpeed="27.77" />

      <vehicle id="veh1" type="Car0" depart="2.497237815972795" route="1">
    </vehicle>
      <vehicle id="veh2" type="Car0" depart="2.548964489864134" route="12">
    </vehicle>
      <vehicle id="veh3" type="Car0" depart="3.0915282511937363" route="23">
    </vehicle>
      <vehicle id="veh4" type="Car0" depart="3.95610454566074" route="24">
    </vehicle>
      <vehicle id="veh5" type="Car0" depart="3.996865752309122" route="0">
    </vehicle>
      <vehicle id="veh6" type="Car0" depart="4.147967577856482" route="23">
    </vehicle>
      <vehicle id="veh7" type="Car0" depart="4.860223730154935" route="4">
    </vehicle>
      <vehicle id="veh8" type="Car0" depart="5.500015233692923" route="6">
    </vehicle>
      <vehicle id="veh9" type="Car0" depart="5.865781152444659" route="19">
    </vehicle>
      <vehicle id="veh10" type="Car0" depart="5.885667495928672" route="6">
    </vehicle>
      <vehicle id="veh11" type="Car0" depart="6.109579051328304" route="22">
    </vehicle>
      <vehicle id="veh12" type="Car0" depart="6.511273092261179" route="24">
    </vehicle>
      <vehicle id="veh13" type="Car0" depart="7.507810270178371" route="11">
    </vehicle>
      <vehicle id="veh14" type="Car0" depart="8.140660678684327" route="10">
    </vehicle>
      <vehicle id="veh15" type="Car0" depart="8.426269302545837" route="10">
    </vehicle>
      <vehicle id="veh16" type="Car0" depart="8.692224425515963" route="18">
    </vehicle>
      <vehicle id="veh17" type="Car0" depart="8.891126438185289" route="6">
    </vehicle>
      <vehicle id="veh18" type="Car0" depart="11.096341031269402" route="10">
    </vehicle>
      <vehicle id="veh19" type="Car0" depart="11.331589073269168" route="1">
    </vehicle>
      <vehicle id="veh20" type="Car0" depart="11.919754473050302" route="13">
    </vehicle>
      <vehicle id="veh21" type="Car0" depart="11.960559790873504" route="8">
    </vehicle>
      <vehicle id="veh22" type="Car0" depart="12.01993479511579" route="6">
    </vehicle>
      <vehicle id="veh23" type="Car0" depart="13.352239814838955" route="8">
    </vehicle>
      <vehicle id="veh24" type="Car0" depart="14.413765174915113" route="4">
    </vehicle>
      <vehicle id="veh25" type="Car0" depart="15.289643189486748" route="9">
    </vehicle>
      <vehicle id="veh26" type="Car0" depart="15.364450694127681" route="5">
    </vehicle>
      <vehicle id="veh27" type="Car0" depart="17.378828963711324" route="25">
    </vehicle>
      <vehicle id="veh28" type="Car0" depart="17.427044845399752" route="27">
    </vehicle>
      <vehicle id="veh29" type="Car0" depart="17.446804431778343" route="17">
    </vehicle>
      <vehicle id="veh30" type="Car0" depart="18.858710855453687" route="4">
    </vehicle>
      <vehicle id="veh31" type="Car0" depart="21.293661886641864" route="5">
    </vehicle>
      <vehicle id="veh32" type="Car0" depart="21.388985152333184" route="22">
    </vehicle>
      <vehicle id="veh33" type="Car0" depart="22.177049930697407" route="6">
    </vehicle>
      <vehicle id="veh34" type="Car0" depart="22.260760063294658" route="7">
    </vehicle>
      <vehicle id="veh35" type="Car0" depart="23.16672576654948" route="25">
    </vehicle>
      <vehicle id="veh36" type="Car0" depart="26.275839835652263" route="24">
    </vehicle>
      <vehicle id="veh37" type="Car0" depart="26.98756301419935" route="13">
    </vehicle>
      <vehicle id="veh38" type="Car0" depart="27.641517004028376" route="16">
    </vehicle>
      <vehicle id="veh39" type="Car0" depart="28.66275386755161" route="7">
    </vehicle>
      <vehicle id="veh40" type="Car0" depart="28.728634967288556" route="16">
    </vehicle>
      <vehicle id="veh41" type="Car0" depart="29.693239175801654" route="15">
    </vehicle>
      <vehicle id="veh42" type="Car0" depart="30.553303304475225" route="14">
    </vehicle>
      <vehicle id="veh43" type="Car0" depart="30.612237324900452" route="6">
    </vehicle>
      <vehicle id="veh44" type="Car0" depart="32.16871588686892" route="2">
    </vehicle>
      <vehicle id="veh45" type="Car0" depart="32.19902232068882" route="10">
    </vehicle>
      <vehicle id="veh46" type="Car0" depart="33.542411069331514" route="8">
    </vehicle>
      <vehicle id="veh47" type="Car0" depart="33.679497824757675" route="9">
    </vehicle>
      <vehicle id="veh48" type="Car0" depart="34.92267115407155" route="14">
    </vehicle>
      <vehicle id="veh49" type="Car0" depart="37.477183265334176" route="24">
    </vehicle>
      <vehicle id="veh50" type="Car0" depart="39.11616242068006" route="7">
    </vehicle>
      <vehicle id="veh51" type="Car0" depart="39.14372138099247" route="9">
    </vehicle>
      <vehicle id="veh52" type="Car0" depart="39.69676316932187" route="13">
    </vehicle>
      <vehicle id="veh53" type="Car0" depart="40.29617879423498" route="16">
    </vehicle>
      <vehicle id="veh54" type="Car0" depart="41.40422568174954" route="0">
    </vehicle>
      <vehicle id="veh55" type="Car0" depart="41.861682482853716" route="11">
    </vehicle>
      <vehicle id="veh56" type="Car0" depart="41.993987657946406" route="27">
    </vehicle>
      <vehicle id="veh57" type="Car0" depart="42.28541377874638" route="1">
    </vehicle>
      <vehicle id="veh58" type="Car0" depart="43.06422348160913" route="28">
    </vehicle>
      <vehicle id="veh59" type="Car0" depart="43.85082973051284" route="28">
    </vehicle>
      <vehicle id="veh60" type="Car0" depart="44.19079738194003" route="17">
    </vehicle>
      <vehicle id="veh61" type="Car0" depart="44.22630529945566" route="4">
    </vehicle>
      <vehicle id="veh62" type="Car0" depart="46.27872142864336" route="10">
    </vehicle>
      <vehicle id="veh63" type="Car0" depart="46.82794710933536" route="12">
    </vehicle>
      <vehicle id="veh64" type="Car0" depart="49.63815101653126" route="7">
    </vehicle>
      <vehicle id="veh65" type="Car0" depart="50.040826816325755" route="2">
    </vehicle>
      <vehicle id="veh66" type="Car0" depart="51.727082736524906" route="25">
    </vehicle>
      <vehicle id="veh67" type="Car0" depart="51.874931669376124" route="7">
    </vehicle>
      <vehicle id="veh68" type="Car0" depart="53.089294263128835" route="12">
    </vehicle>
      <vehicle id="veh69" type="Car0" depart="53.67793845426807" route="13">
    </vehicle>
      <vehicle id="veh70" type="Car0" depart="55.00404981004391" route="27">
    </vehicle>
      <vehicle id="veh71" type="Car0" depart="55.368259383774365" route="22">
    </vehicle>
      <vehicle id="veh72" type="Car0" depart="55.79150306817449" route="16">
    </vehicle>
      <vehicle id="veh73" type="Car0" depart="56.48659805478599" route="8">
    </vehicle>
      <vehicle id="veh74" type="Car0" depart="56.49046674483759" route="18">
    </vehicle>
      <vehicle id="veh75" type="Car0" depart="56.55363902725855" route="14">
    </vehicle>
      <vehicle id="veh76" type="Car0" depart="57.02714054958388" route="14">
    </vehicle>
      <vehicle id="veh77" type="Car0" depart="58.99083861380665" route="12">
    </vehicle>
      <vehicle id="veh78" type="Car0" depart="59.24663578224762" route="3">
    </vehicle>
      <vehicle id="veh79" type="Car0" depart="59.27438419055257" route="29">
    </vehicle>
      <vehicle id="veh80" type="Car0" depart="59.31895565624498" route="3">
    </vehicle>
      <vehicle id="veh81" type="Car0" depart="59.48883972693289" route="15">
    </vehicle>
      <vehicle id="veh82" type="Car0" depart="59.642372443892675" route="5">
    </vehicle>
      <vehicle id="veh83" type="Car0" depart="59.83830543886441" route="11">
    </vehicle>
      <vehicle id="veh84" type="Car0" depart="60.145795438084455" route="7">
    </vehicle>
      <vehicle id="veh85" type="Car0" depart="60.20042013705568" route="17">
    </vehicle>
      <vehicle id="veh86" type="Car0" depart="61.9559474581916" route="9">
    </vehicle>
      <vehicle id="veh87" type="Car0" depart="62.075962319684315" route="25">
    </vehicle>
      <vehicle id="veh88" type="Car0" depart="62.07641426876699" route="4">
    </vehicle>
      <vehicle id="veh89" type="Car0" depart="63.1008694999726" route="24">
    </vehicle>
      <vehicle id="veh90" type="Car0" depart="63.29667805737014" route="15">
    </vehicle>
</routes>