<!-- number of vehicles:90 -->
<!-- generated on 2022-01-05 17:42:12.348604 by "vehicleFlow.py cars_90_6.rou.xml -m 2 -r 1.5 -t 90" -->
<routes>
  <route id="0" edges="w_to_c1 c1_to_c2 c2_to_e"/>
  <route id="1" edges="n1_to_c1 c1_to_s1"/>
  <route id="2" edges="s1_to_c1 c1_to_n1"/>
  <route id="3" edges="n2_to_c2 c2_to_s2"/>
  <route id="4" edges="e_to_c2 c2_to_c1 c1_to_w"/>
  <route id="5" edges="s2_to_c2 c2_to_n2"/>
  <route id="6" edges="w_to_c1 c1_to_s1"/>
  <route id="7" edges="w_to_c1 c1_to_c2 c2_to_s2"/>
  <route id="8" edges="w_to_c1 c1_to_c2 c2_to_n2"/>
  <route id="9" edges="w_to_c1 c1_to_n1"/>
  <route id="10" edges="s1_to_c1 c1_to_c2 c2_to_s2"/>
  <route id="11" edges="s1_to_c1 c1_to_c2 c2_to_e"/>
  <route id="12" edges="s1_to_c1 c1_to_c2 c2_to_n2"/>
  <route id="13" edges="s1_to_c1 c1_to_w"/>
  <route id="14" edges="s2_to_c2 c2_to_e"/>
  <route id="15" edges="s2_to_c2 c2_to_c1 c1_to_n1"/>
  <route id="16" edges="s2_to_c2 c2_to_c1 c1_to_w"/>
  <route id="17" edges="s2_to_c2 c2_to_c1 c1_to_s1"/>
  <route id="18" edges="e_to_c2 c2_to_n2"/>
  <route id="19" edges="e_to_c2 c2_to_c1 c1_to_n1"/>
  <route id="20" edges="e_to_c2 c2_to_c1 c1_to_s1"/>
  <route id="21" edges="e_to_c2 c2_to_s2"/>
  <route id="22" edges="n2_to_c2 c2_to_c1 c1_to_n1"/>
  <route id="23" edges="n2_to_c2 c2_to_c1 c1_to_w"/>
  <route id="24" edges="n2_to_c2 c2_to_c1 c1_to_s1"/>
  <route id="25" edges="n2_to_c2 c2_to_e"/>
  <route id="26" edges="n1_to_c1 c1_to_w"/>
  <route id="27" edges="n1_to_c1 c1_to_c2 c2_to_s2"/>
  <route id="28" edges="n1_to_c1 c1_to_c2 c2_to_e"/>
  <route id="29" edges="n1_to_c1 c1_to_c2 c2_to_n2"/>

  <vType accel="4" decel="7.5" emergencyDecel="7.5" minGap="5.0" speedDev="0.1" speedFactor="1.2" id="Car0" maxSpeed="27.77" />

      <vehicle id="veh1" type="Car0" depart="0.27342180597668525" route="14">
    </vehicle>
      <vehicle id="veh2" type="Car0" depart="1.4506686703661356" route="26">
    </vehicle>
      <vehicle id="veh3" type="Car0" depart="1.7528640677157317" route="16">
    </vehicle>
      <vehicle id="veh4" type="Car0" depart="2.443307251098354" route="23">
    </vehicle>
      <vehicle id="veh5" type="Car0" depart="2.816780879565036" route="24">
    </vehicle>
      <vehicle id="veh6" type="Car0" depart="3.4659242471177727" route="3">
    </vehicle>
      <vehicle id="veh7" type="Car0" depart="5.151376939027434" route="4">
    </vehicle>
      <vehicle id="veh8" type="Car0" depart="5.375493001828993" route="12">
    </vehicle>
      <vehicle id="veh9" type="Car0" depart="5.977670123393028" route="24">
    </vehicle>
      <vehicle id="veh10" type="Car0" depart="6.041977593310776" route="1">
    </vehicle>
      <vehicle id="veh11" type="Car0" depart="6.783633771980562" route="8">
    </vehicle>
      <vehicle id="veh12" type="Car0" depart="7.615459209943461" route="8">
    </vehicle>
      <vehicle id="veh13" type="Car0" depart="8.951059933518533" route="4">
    </vehicle>
      <vehicle id="veh14" type="Car0" depart="9.328610535406192" route="24">
    </vehicle>
      <vehicle id="veh15" type="Car0" depart="9.408559527757845" route="0">
    </vehicle>
      <vehicle id="veh16" type="Car0" depart="12.41208523105289" route="0">
    </vehicle>
      <vehicle id="veh17" type="Car0" depart="12.468622492819954" route="17">
    </vehicle>
      <vehicle id="veh18" type="Car0" depart="12.822825145852764" route="12">
    </vehicle>
      <vehicle id="veh19" type="Car0" depart="12.909142916560258" route="10">
    </vehicle>
      <vehicle id="veh20" type="Car0" depart="16.12953279363544" route="17">
    </vehicle>
      <vehicle id="veh21" type="Car0" depart="17.35870872383914" route="25">
    </vehicle>
      <vehicle id="veh22" type="Car0" depart="18.823526714037474" route="16">
    </vehicle>
      <vehicle id="veh23" type="Car0" depart="19.574103437259456" route="22">
    </vehicle>
      <vehicle id="veh24" type="Car0" depart="19.945677061802833" route="16">
    </vehicle>
      <vehicle id="veh25" type="Car0" depart="20.20779254450052" route="11">
    </vehicle>
      <vehicle id="veh26" type="Car0" depart="20.35483566216723" route="25">
    </vehicle>
      <vehicle id="veh27" type="Car0" depart="20.39286093978492" route="27">
    </vehicle>
      <vehicle id="veh28" type="Car0" depart="21.072536456635508" route="7">
    </vehicle>
      <vehicle id="veh29" type="Car0" depart="21.431214441438172" route="17">
    </vehicle>
      <vehicle id="veh30" type="Car0" depart="21.573740717770693" route="17">
    </vehicle>
      <vehicle id="veh31" type="Car0" depart="22.26013284405847" route="14">
    </vehicle>
      <vehicle id="veh32" type="Car0" depart="22.870441095489408" route="23">
    </vehicle>
      <vehicle id="veh33" type="Car0" depart="23.280600792883064" route="15">
    </vehicle>
      <vehicle id="veh34" type="Car0" depart="23.441697243737362" route="28">
    </vehicle>
      <vehicle id="veh35" type="Car0" depart="23.69430339792651" route="9">
    </vehicle>
      <vehicle id="veh36" type="Car0" depart="23.916260857703882" route="18">
    </vehicle>
      <vehicle id="veh37" type="Car0" depart="24.238869650004936" route="10">
    </vehicle>
      <vehicle id="veh38" type="Car0" depart="25.94755563065427" route="22">
    </vehicle>
      <vehicle id="veh39" type="Car0" depart="26.011849136390083" route="22">
    </vehicle>
      <vehicle id="veh40" type="Car0" depart="26.482933183922963" route="12">
    </vehicle>
      <vehicle id="veh41" type="Car0" depart="26.533788912181237" route="18">
    </vehicle>
      <vehicle id="veh42" type="Car0" depart="26.618433786325234" route="20">
    </vehicle>
      <vehicle id="veh43" type="Car0" depart="26.93262548430408" route="21">
    </vehicle>
      <vehicle id="veh44" type="Car0" depart="27.364325764560522" route="13">
    </vehicle>
      <vehicle id="veh45" type="Car0" depart="27.95924489185985" route="3">
    </vehicle>
      <vehicle id="veh46" type="Car0" depart="28.77815909474839" route="2">
    </vehicle>
      <vehicle id="veh47" type="Car0" depart="29.171740275708522" route="4">
    </vehicle>
      <vehicle id="veh48" type="Car0" depart="29.386733491592754" route="9">
    </vehicle>
      <vehicle id="veh49" type="Car0" depart="30.09829377562987" route="14">
    </vehicle>
      <vehicle id="veh50" type="Car0" depart="30.48444432111262" route="2">
    </vehicle>
      <vehicle id="veh51" type="Car0" depart="31.18455160694857" route="3">
    </vehicle>
      <vehicle id="veh52" type="Car0" depart="31.64901852426895" route="6">
    </vehicle>
      <vehicle id="veh53" type="Car0" depart="32.27960608914518" route="9">
    </vehicle>
      <vehicle id="veh54" type="Car0" depart="32.37429869976632" route="3">
    </vehicle>
      <vehicle id="veh55" type="Car0" depart="33.121225010320586" route="22">
    </vehicle>
      <vehicle id="veh56" type="Car0" depart="33.50623833126571" route="27">
    </vehicle>
      <vehicle id="veh57" type="Car0" depart="34.02227763063311" route="28">
    </vehicle>
      <vehicle id="veh58" type="Car0" depart="34.48032729608711" route="9">
    </vehicle>
      <vehicle id="veh59" type="Car0" depart="36.67675931809246" route="2">
    </vehicle>
      <vehicle id="veh60" type="Car0" depart="38.105609339623705" route="7">
    </vehicle>
      <vehicle id="veh61" type="Car0" depart="40.28988787353498" route="17">
    </vehicle>
      <vehicle id="veh62" type="Car0" depart="41.42455376917856" route="14">
    </vehicle>
      <vehicle id="veh63" type="Car0" depart="41.512467196157054" route="6">
    </vehicle>
      <vehicle id="veh64" type="Car0" depart="41.70472942041458" route="17">
    </vehicle>
      <vehicle id="veh65" type="Car0" depart="42.93549597829297" route="9">
    </vehicle>
      <vehicle id="veh66" type="Car0" depart="43.93964575709212" route="24">
    </vehicle>
      <vehicle id="veh67" type="Car0" depart="44.52155755604024" route="5">
    </vehicle>
      <vehicle id="veh68" type="Car0" depart="44.787166077964706" route="5">
    </vehicle>
      <vehicle id="veh69" type="Car0" depart="48.16130346260457" route="7">
    </vehicle>
      <vehicle id="veh70" type="Car0" depart="48.47327903685316" route="16">
    </vehicle>
      <vehicle id="veh71" type="Car0" depart="49.61558670544557" route="20">
    </vehicle>
      <vehicle id="veh72" type="Car0" depart="49.68306667302324" route="25">
    </vehicle>
      <vehicle id="veh73" type="Car0" depart="49.99025901773042" route="24">
    </vehicle>
      <vehicle id="veh74" type="Car0" depart="50.18625118210018" route="17">
    </vehicle>
      <vehicle id="veh75" type="Car0" depart="50.36115461908361" route="17">
    </vehicle>
      <vehicle id="veh76" type="Car0" depart="52.39620421023559" route="28">
    </vehicle>
      <vehicle id="veh77" type="Car0" depart="53.233638634579954" route="26">
    </vehicle>
      <vehicle id="veh78" type="Car0" depart="55.16721563092602" route="19">
    </vehicle>
      <vehicle id="veh79" type="Car0" depart="55.67063763699995" route="11">
    </vehicle>
      <vehicle id="veh80" type="Car0" depart="56.240729319940534" route="23">
    </vehicle>
      <vehicle id="veh81" type="Car0" depart="57.31160039244789" route="28">
    </vehicle>
      <vehicle id="veh82" type="Car0" depart="57.82091483486159" route="18">
    </vehicle>
      <vehicle id="veh83" type="Car0" depart="58.03910214854145" route="29">
    </vehicle>
      <vehicle id="veh84" type="Car0" depart="58.17704683390034" route="19">
    </vehicle>
      <vehicle id="veh85" type="Car0" depart="58.34369631823014" route="19">
    </vehicle>
      <vehicle id="veh86" type="Car0" depart="58.449027361552986" route="11">
    </vehicle>
      <vehicle id="veh87" type="Car0" depart="58.913696345429486" route="26">
    </vehicle>
      <vehicle id="veh88" type="Car0" depart="59.37859744350525" route="29">
    </vehicle>
      <vehicle id="veh89" type="Car0" depart="59.4605160795132" route="4">
    </vehicle>
      <vehicle id="veh90" type="Car0" depart="59.8803236166863" route="13">
    </vehicle>
</routes>