<!-- number of vehicles:50 -->
<!-- generated on 2022-01-05 17:42:12.269162 by "vehicleFlow.py cars_50_6.rou.xml -m 2 -r 1.5 -t 50" -->
<routes>
  <route id="0" edges="w_to_c1 c1_to_c2 c2_to_e"/>
  <route id="1" edges="n1_to_c1 c1_to_s1"/>
  <route id="2" edges="s1_to_c1 c1_to_n1"/>
  <route id="3" edges="n2_to_c2 c2_to_s2"/>
  <route id="4" edges="e_to_c2 c2_to_c1 c1_to_w"/>
  <route id="5" edges="s2_to_c2 c2_to_n2"/>
  <route id="6" edges="w_to_c1 c1_to_s1"/>
  <route id="7" edges="w_to_c1 c1_to_c2 c2_to_s2"/>
  <route id="8" edges="w_to_c1 c1_to_c2 c2_to_n2"/>
  <route id="9" edges="w_to_c1 c1_to_n1"/>
  <route id="10" edges="s1_to_c1 c1_to_c2 c2_to_s2"/>
  <route id="11" edges="s1_to_c1 c1_to_c2 c2_to_e"/>
  <route id="12" edges="s1_to_c1 c1_to_c2 c2_to_n2"/>
  <route id="13" edges="s1_to_c1 c1_to_w"/>
  <route id="14" edges="s2_to_c2 c2_to_e"/>
  <route id="15" edges="s2_to_c2 c2_to_c1 c1_to_n1"/>
  <route id="16" edges="s2_to_c2 c2_to_c1 c1_to_w"/>
  <route id="17" edges="s2_to_c2 c2_to_c1 c1_to_s1"/>
  <route id="18" edges="e_to_c2 c2_to_n2"/>
  <route id="19" edges="e_to_c2 c2_to_c1 c1_to_n1"/>
  <route id="20" edges="e_to_c2 c2_to_c1 c1_to_s1"/>
  <route id="21" edges="e_to_c2 c2_to_s2"/>
  <route id="22" edges="n2_to_c2 c2_to_c1 c1_to_n1"/>
  <route id="23" edges="n2_to_c2 c2_to_c1 c1_to_w"/>
  <route id="24" edges="n2_to_c2 c2_to_c1 c1_to_s1"/>
  <route id="25" edges="n2_to_c2 c2_to_e"/>
  <route id="26" edges="n1_to_c1 c1_to_w"/>
  <route id="27" edges="n1_to_c1 c1_to_c2 c2_to_s2"/>
  <route id="28" edges="n1_to_c1 c1_to_c2 c2_to_e"/>
  <route id="29" edges="n1_to_c1 c1_to_c2 c2_to_n2"/>

  <vType accel="4" decel="7.5" emergencyDecel="7.5" minGap="5.0" speedDev="0.1" speedFactor="1.2" id="Car0" maxSpeed="27.77" />

      <vehicle id="veh1" type="Car0" depart="0.20545204936277447" route="0">
    </vehicle>
      <vehicle id="veh2" type="Car0" depart="0.2107951073241359" route="20">
    </vehicle>
      <vehicle id="veh3" type="Car0" depart="0.8469790269954897" route="16">
    </vehicle>
      <vehicle id="veh4" type="Car0" depart="1.1949445471112519" route="8">
    </vehicle>
      <vehicle id="veh5" type="Car0" depart="1.3977260255315571" route="11">
    </vehicle>
      <vehicle id="veh6" type="Car0" depart="1.408407174534288" route="0">
    </vehicle>
      <vehicle id="veh7" type="Car0" depart="1.8389660068620137" route="9">
    </vehicle>
      <vehicle id="veh8" type="Car0" depart="2.7210806013495703" route="4">
    </vehicle>
      <vehicle id="veh9" type="Car0" depart="2.8038520457865608" route="5">
    </vehicle>
      <vehicle id="veh10" type="Car0" depart="3.1992948570108646" route="4">
    </vehicle>
      <vehicle id="veh11" type="Car0" depart="4.47435007910227" route="5">
    </vehicle>
      <vehicle id="veh12" type="Car0" depart="5.481531472426444" route="14">
    </vehicle>
      <vehicle id="veh13" type="Car0" depart="5.600358807916475" route="15">
    </vehicle>
      <vehicle id="veh14" type="Car0" depart="5.957696996332875" route="14">
    </vehicle>
      <vehicle id="veh15" type="Car0" depart="6.3107545310075945" route="2">
    </vehicle>
      <vehicle id="veh16" type="Car0" depart="6.839084366521568" route="27">
    </vehicle>
      <vehicle id="veh17" type="Car0" depart="7.7544679727415255" route="26">
    </vehicle>
      <vehicle id="veh18" type="Car0" depart="8.50750340781006" route="19">
    </vehicle>
      <vehicle id="veh19" type="Car0" depart="8.5270087976919" route="11">
    </vehicle>
      <vehicle id="veh20" type="Car0" depart="9.663155613016327" route="9">
    </vehicle>
      <vehicle id="veh21" type="Car0" depart="10.092898319674452" route="21">
    </vehicle>
      <vehicle id="veh22" type="Car0" depart="11.83015679374162" route="18">
    </vehicle>
      <vehicle id="veh23" type="Car0" depart="12.715571303626069" route="13">
    </vehicle>
      <vehicle id="veh24" type="Car0" depart="12.822980845921844" route="19">
    </vehicle>
      <vehicle id="veh25" type="Car0" depart="13.324306168975559" route="19">
    </vehicle>
      <vehicle id="veh26" type="Car0" depart="13.378284167314852" route="1">
    </vehicle>
      <vehicle id="veh27" type="Car0" depart="14.366182478764316" route="1">
    </vehicle>
      <vehicle id="veh28" type="Car0" depart="15.753913916096582" route="23">
    </vehicle>
      <vehicle id="veh29" type="Car0" depart="15.998214332952807" route="3">
    </vehicle>
      <vehicle id="veh30" type="Car0" depart="16.02895638973303" route="9">
    </vehicle>
      <vehicle id="veh31" type="Car0" depart="17.516187558522745" route="24">
    </vehicle>
      <vehicle id="veh32" type="Car0" depart="17.826110691974296" route="9">
    </vehicle>
      <vehicle id="veh33" type="Car0" depart="18.310556427100114" route="19">
    </vehicle>
      <vehicle id="veh34" type="Car0" depart="18.410461718162594" route="17">
    </vehicle>
      <vehicle id="veh35" type="Car0" depart="18.457957383572893" route="0">
    </vehicle>
      <vehicle id="veh36" type="Car0" depart="18.707203951830405" route="7">
    </vehicle>
      <vehicle id="veh37" type="Car0" depart="18.960826581125325" route="1">
    </vehicle>
      <vehicle id="veh38" type="Car0" depart="20.329064476634308" route="21">
    </vehicle>
      <vehicle id="veh39" type="Car0" depart="20.385682073458067" route="11">
    </vehicle>
      <vehicle id="veh40" type="Car0" depart="21.576544054249645" route="16">
    </vehicle>
      <vehicle id="veh41" type="Car0" depart="21.6367295260126" route="12">
    </vehicle>
      <vehicle id="veh42" type="Car0" depart="22.23153248640753" route="13">
    </vehicle>
      <vehicle id="veh43" type="Car0" depart="23.65980997176405" route="24">
    </vehicle>
      <vehicle id="veh44" type="Car0" depart="25.394506006026397" route="19">
    </vehicle>
      <vehicle id="veh45" type="Car0" depart="26.103138602201547" route="2">
    </vehicle>
      <vehicle id="veh46" type="Car0" depart="27.930732917040398" route="3">
    </vehicle>
      <vehicle id="veh47" type="Car0" depart="28.99655111240269" route="3">
    </vehicle>
      <vehicle id="veh48" type="Car0" depart="29.427528303691098" route="20">
    </vehicle>
      <vehicle id="veh49" type="Car0" depart="29.651780901688582" route="7">
    </vehicle>
      <vehicle id="veh50" type="Car0" depart="30.501395893217186" route="24">
    </vehicle>
</routes>