<!-- number of vehicles:70 -->
<!-- generated on 2022-01-05 17:42:11.700625 by "vehicleFlow.py cars_70_3.rou.xml -m 2 -r 1.5 -t 70" -->
<routes>
  <route id="0" edges="w_to_c1 c1_to_c2 c2_to_e"/>
  <route id="1" edges="n1_to_c1 c1_to_s1"/>
  <route id="2" edges="s1_to_c1 c1_to_n1"/>
  <route id="3" edges="n2_to_c2 c2_to_s2"/>
  <route id="4" edges="e_to_c2 c2_to_c1 c1_to_w"/>
  <route id="5" edges="s2_to_c2 c2_to_n2"/>
  <route id="6" edges="w_to_c1 c1_to_s1"/>
  <route id="7" edges="w_to_c1 c1_to_c2 c2_to_s2"/>
  <route id="8" edges="w_to_c1 c1_to_c2 c2_to_n2"/>
  <route id="9" edges="w_to_c1 c1_to_n1"/>
  <route id="10" edges="s1_to_c1 c1_to_c2 c2_to_s2"/>
  <route id="11" edges="s1_to_c1 c1_to_c2 c2_to_e"/>
  <route id="12" edges="s1_to_c1 c1_to_c2 c2_to_n2"/>
  <route id="13" edges="s1_to_c1 c1_to_w"/>
  <route id="14" edges="s2_to_c2 c2_to_e"/>
  <route id="15" edges="s2_to_c2 c2_to_c1 c1_to_n1"/>
  <route id="16" edges="s2_to_c2 c2_to_c1 c1_to_w"/>
  <route id="17" edges="s2_to_c2 c2_to_c1 c1_to_s1"/>
  <route id="18" edges="e_to_c2 c2_to_n2"/>
  <route id="19" edges="e_to_c2 c2_to_c1 c1_to_n1"/>
  <route id="20" edges="e_to_c2 c2_to_c1 c1_to_s1"/>
  <route id="21" edges="e_to_c2 c2_to_s2"/>
  <route id="22" edges="n2_to_c2 c2_to_c1 c1_to_n1"/>
  <route id="23" edges="n2_to_c2 c2_to_c1 c1_to_w"/>
  <route id="24" edges="n2_to_c2 c2_to_c1 c1_to_s1"/>
  <route id="25" edges="n2_to_c2 c2_to_e"/>
  <route id="26" edges="n1_to_c1 c1_to_w"/>
  <route id="27" edges="n1_to_c1 c1_to_c2 c2_to_s2"/>
  <route id="28" edges="n1_to_c1 c1_to_c2 c2_to_e"/>
  <route id="29" edges="n1_to_c1 c1_to_c2 c2_to_n2"/>

  <vType accel="4" decel="7.5" emergencyDecel="7.5" minGap="5.0" speedDev="0.1" speedFactor="1.2" id="Car0" maxSpeed="27.77" />

      <vehicle id="veh1" type="Car0" depart="1.1458687306892317" route="10">
    </vehicle>
      <vehicle id="veh2" type="Car0" depart="1.6761866228366649" route="1">
    </vehicle>
      <vehicle id="veh3" type="Car0" depart="2.726254584538184" route="26">
    </vehicle>
      <vehicle id="veh4" type="Car0" depart="3.1608558223413463" route="0">
    </vehicle>
      <vehicle id="veh5" type="Car0" depart="4.179904057216344" route="3">
    </vehicle>
      <vehicle id="veh6" type="Car0" depart="4.191389655876561" route="16">
    </vehicle>
      <vehicle id="veh7" type="Car0" depart="5.3151837623495695" route="23">
    </vehicle>
      <vehicle id="veh8" type="Car0" depart="5.449764755424916" route="11">
    </vehicle>
      <vehicle id="veh9" type="Car0" depart="5.768790287765585" route="1">
    </vehicle>
      <vehicle id="veh10" type="Car0" depart="6.3217966442174784" route="24">
    </vehicle>
      <vehicle id="veh11" type="Car0" depart="7.509149231842823" route="12">
    </vehicle>
      <vehicle id="veh12" type="Car0" depart="7.525565077968197" route="17">
    </vehicle>
      <vehicle id="veh13" type="Car0" depart="7.5346389626152925" route="8">
    </vehicle>
      <vehicle id="veh14" type="Car0" depart="7.884129240787393" route="9">
    </vehicle>
      <vehicle id="veh15" type="Car0" depart="7.935705943071512" route="6">
    </vehicle>
      <vehicle id="veh16" type="Car0" depart="10.104882773959195" route="17">
    </vehicle>
      <vehicle id="veh17" type="Car0" depart="12.163752505458742" route="23">
    </vehicle>
      <vehicle id="veh18" type="Car0" depart="12.907446989364992" route="22">
    </vehicle>
      <vehicle id="veh19" type="Car0" depart="13.700653020373561" route="29">
    </vehicle>
      <vehicle id="veh20" type="Car0" depart="14.365007102499293" route="5">
    </vehicle>
      <vehicle id="veh21" type="Car0" depart="16.940476947510888" route="15">
    </vehicle>
      <vehicle id="veh22" type="Car0" depart="17.372438307681204" route="25">
    </vehicle>
      <vehicle id="veh23" type="Car0" depart="18.39246020648301" route="9">
    </vehicle>
      <vehicle id="veh24" type="Car0" depart="18.540135638041367" route="11">
    </vehicle>
      <vehicle id="veh25" type="Car0" depart="18.690845003448324" route="25">
    </vehicle>
      <vehicle id="veh26" type="Car0" depart="20.565664760315524" route="14">
    </vehicle>
      <vehicle id="veh27" type="Car0" depart="20.6322080699831" route="20">
    </vehicle>
      <vehicle id="veh28" type="Car0" depart="21.160775568420846" route="11">
    </vehicle>
      <vehicle id="veh29" type="Car0" depart="22.144802111972638" route="15">
    </vehicle>
      <vehicle id="veh30" type="Car0" depart="22.240883825625446" route="1">
    </vehicle>
      <vehicle id="veh31" type="Car0" depart="22.326761224206628" route="7">
    </vehicle>
      <vehicle id="veh32" type="Car0" depart="22.437854718390348" route="12">
    </vehicle>
      <vehicle id="veh33" type="Car0" depart="22.807144799239133" route="24">
    </vehicle>
      <vehicle id="veh34" type="Car0" depart="23.73828805985674" route="23">
    </vehicle>
      <vehicle id="veh35" type="Car0" depart="24.097101458457455" route="17">
    </vehicle>
      <vehicle id="veh36" type="Car0" depart="24.86692974368092" route="18">
    </vehicle>
      <vehicle id="veh37" type="Car0" depart="25.095726181537632" route="3">
    </vehicle>
      <vehicle id="veh38" type="Car0" depart="25.76857164718577" route="14">
    </vehicle>
      <vehicle id="veh39" type="Car0" depart="25.81084009984495" route="16">
    </vehicle>
      <vehicle id="veh40" type="Car0" depart="25.88326366256969" route="23">
    </vehicle>
      <vehicle id="veh41" type="Car0" depart="27.478054423411333" route="13">
    </vehicle>
      <vehicle id="veh42" type="Car0" depart="27.812057243679977" route="0">
    </vehicle>
      <vehicle id="veh43" type="Car0" depart="28.206905936220892" route="15">
    </vehicle>
      <vehicle id="veh44" type="Car0" depart="28.509497853622236" route="10">
    </vehicle>
      <vehicle id="veh45" type="Car0" depart="29.40684382389321" route="9">
    </vehicle>
      <vehicle id="veh46" type="Car0" depart="30.25876774675636" route="24">
    </vehicle>
      <vehicle id="veh47" type="Car0" depart="31.640301555591584" route="26">
    </vehicle>
      <vehicle id="veh48" type="Car0" depart="32.16227810227221" route="29">
    </vehicle>
      <vehicle id="veh49" type="Car0" depart="32.69093646353423" route="12">
    </vehicle>
      <vehicle id="veh50" type="Car0" depart="32.79108009478589" route="29">
    </vehicle>
      <vehicle id="veh51" type="Car0" depart="32.79869522364739" route="19">
    </vehicle>
      <vehicle id="veh52" type="Car0" depart="32.95951448111546" route="15">
    </vehicle>
      <vehicle id="veh53" type="Car0" depart="33.363108787139026" route="13">
    </vehicle>
      <vehicle id="veh54" type="Car0" depart="33.58567768274103" route="7">
    </vehicle>
      <vehicle id="veh55" type="Car0" depart="33.66307675557379" route="0">
    </vehicle>
      <vehicle id="veh56" type="Car0" depart="34.612073935265784" route="11">
    </vehicle>
      <vehicle id="veh57" type="Car0" depart="35.82179275674732" route="26">
    </vehicle>
      <vehicle id="veh58" type="Car0" depart="37.198447789407794" route="14">
    </vehicle>
      <vehicle id="veh59" type="Car0" depart="37.677321966733864" route="10">
    </vehicle>
      <vehicle id="veh60" type="Car0" depart="37.77266002784219" route="19">
    </vehicle>
      <vehicle id="veh61" type="Car0" depart="38.21034760399618" route="7">
    </vehicle>
      <vehicle id="veh62" type="Car0" depart="38.87094099981865" route="9">
    </vehicle>
      <vehicle id="veh63" type="Car0" depart="40.869065121018586" route="9">
    </vehicle>
      <vehicle id="veh64" type="Car0" depart="41.159282882146464" route="5">
    </vehicle>
      <vehicle id="veh65" type="Car0" depart="41.1747087956916" route="12">
    </vehicle>
      <vehicle id="veh66" type="Car0" depart="41.668581706320985" route="16">
    </vehicle>
      <vehicle id="veh67" type="Car0" depart="41.836509498273735" route="27">
    </vehicle>
      <vehicle id="veh68" type="Car0" depart="42.280927577918604" route="28">
    </vehicle>
      <vehicle id="veh69" type="Car0" depart="42.986936359970066" route="12">
    </vehicle>
      <vehicle id="veh70" type="Car0" depart="43.6750092477562" route="20">
    </vehicle>
</routes>