<!-- number of vehicles:50 -->
<!-- generated on 2022-01-05 17:42:11.458443 by "vehicleFlow.py cars_50_2.rou.xml -m 2 -r 1.5 -t 50" -->
<routes>
  <route id="0" edges="w_to_c1 c1_to_c2 c2_to_e"/>
  <route id="1" edges="n1_to_c1 c1_to_s1"/>
  <route id="2" edges="s1_to_c1 c1_to_n1"/>
  <route id="3" edges="n2_to_c2 c2_to_s2"/>
  <route id="4" edges="e_to_c2 c2_to_c1 c1_to_w"/>
  <route id="5" edges="s2_to_c2 c2_to_n2"/>
  <route id="6" edges="w_to_c1 c1_to_s1"/>
  <route id="7" edges="w_to_c1 c1_to_c2 c2_to_s2"/>
  <route id="8" edges="w_to_c1 c1_to_c2 c2_to_n2"/>
  <route id="9" edges="w_to_c1 c1_to_n1"/>
  <route id="10" edges="s1_to_c1 c1_to_c2 c2_to_s2"/>
  <route id="11" edges="s1_to_c1 c1_to_c2 c2_to_e"/>
  <route id="12" edges="s1_to_c1 c1_to_c2 c2_to_n2"/>
  <route id="13" edges="s1_to_c1 c1_to_w"/>
  <route id="14" edges="s2_to_c2 c2_to_e"/>
  <route id="15" edges="s2_to_c2 c2_to_c1 c1_to_n1"/>
  <route id="16" edges="s2_to_c2 c2_to_c1 c1_to_w"/>
  <route id="17" edges="s2_to_c2 c2_to_c1 c1_to_s1"/>
  <route id="18" edges="e_to_c2 c2_to_n2"/>
  <route id="19" edges="e_to_c2 c2_to_c1 c1_to_n1"/>
  <route id="20" edges="e_to_c2 c2_to_c1 c1_to_s1"/>
  <route id="21" edges="e_to_c2 c2_to_s2"/>
  <route id="22" edges="n2_to_c2 c2_to_c1 c1_to_n1"/>
  <route id="23" edges="n2_to_c2 c2_to_c1 c1_to_w"/>
  <route id="24" edges="n2_to_c2 c2_to_c1 c1_to_s1"/>
  <route id="25" edges="n2_to_c2 c2_to_e"/>
  <route id="26" edges="n1_to_c1 c1_to_w"/>
  <route id="27" edges="n1_to_c1 c1_to_c2 c2_to_s2"/>
  <route id="28" edges="n1_to_c1 c1_to_c2 c2_to_e"/>
  <route id="29" edges="n1_to_c1 c1_to_c2 c2_to_n2"/>

  <vType accel="4" decel="7.5" emergencyDecel="7.5" minGap="5.0" speedDev="0.1" speedFactor="1.2" id="Car0" maxSpeed="27.77" />

      <vehicle id="veh1" type="Car0" depart="0.387568476680731" route="10">
    </vehicle>
      <vehicle id="veh2" type="Car0" depart="0.8115306602296017" route="16">
    </vehicle>
      <vehicle id="veh3" type="Car0" depart="1.46166697074421" route="27">
    </vehicle>
      <vehicle id="veh4" type="Car0" depart="1.6178264287253779" route="28">
    </vehicle>
      <vehicle id="veh5" type="Car0" depart="2.6744919446652027" route="26">
    </vehicle>
      <vehicle id="veh6" type="Car0" depart="2.8208669269384434" route="16">
    </vehicle>
      <vehicle id="veh7" type="Car0" depart="3.0683302560866874" route="3">
    </vehicle>
      <vehicle id="veh8" type="Car0" depart="3.7097379133995827" route="18">
    </vehicle>
      <vehicle id="veh9" type="Car0" depart="5.099710892624581" route="15">
    </vehicle>
      <vehicle id="veh10" type="Car0" depart="5.447973860087819" route="17">
    </vehicle>
      <vehicle id="veh11" type="Car0" depart="5.650728597592631" route="25">
    </vehicle>
      <vehicle id="veh12" type="Car0" depart="6.19414433184894" route="16">
    </vehicle>
      <vehicle id="veh13" type="Car0" depart="6.329602978893518" route="15">
    </vehicle>
      <vehicle id="veh14" type="Car0" depart="6.925004924168098" route="21">
    </vehicle>
      <vehicle id="veh15" type="Car0" depart="7.1049061274727405" route="27">
    </vehicle>
      <vehicle id="veh16" type="Car0" depart="7.179583807712634" route="9">
    </vehicle>
      <vehicle id="veh17" type="Car0" depart="7.993161452015411" route="19">
    </vehicle>
      <vehicle id="veh18" type="Car0" depart="8.011807409045206" route="29">
    </vehicle>
      <vehicle id="veh19" type="Car0" depart="8.390072420252913" route="22">
    </vehicle>
      <vehicle id="veh20" type="Car0" depart="8.725582607097564" route="26">
    </vehicle>
      <vehicle id="veh21" type="Car0" depart="9.907343736223492" route="17">
    </vehicle>
      <vehicle id="veh22" type="Car0" depart="10.026552812162839" route="3">
    </vehicle>
      <vehicle id="veh23" type="Car0" depart="11.377426315551691" route="28">
    </vehicle>
      <vehicle id="veh24" type="Car0" depart="12.226333871072212" route="18">
    </vehicle>
      <vehicle id="veh25" type="Car0" depart="12.714858769677361" route="20">
    </vehicle>
      <vehicle id="veh26" type="Car0" depart="13.361744461647195" route="24">
    </vehicle>
      <vehicle id="veh27" type="Car0" depart="13.455001508639917" route="29">
    </vehicle>
      <vehicle id="veh28" type="Car0" depart="13.576577108340995" route="15">
    </vehicle>
      <vehicle id="veh29" type="Car0" depart="13.657295686549901" route="15">
    </vehicle>
      <vehicle id="veh30" type="Car0" depart="13.678052709174885" route="3">
    </vehicle>
      <vehicle id="veh31" type="Car0" depart="14.457975216144375" route="9">
    </vehicle>
      <vehicle id="veh32" type="Car0" depart="14.806252415351473" route="24">
    </vehicle>
      <vehicle id="veh33" type="Car0" depart="16.09359177149091" route="4">
    </vehicle>
      <vehicle id="veh34" type="Car0" depart="18.121971083100767" route="23">
    </vehicle>
      <vehicle id="veh35" type="Car0" depart="18.554668373527562" route="26">
    </vehicle>
      <vehicle id="veh36" type="Car0" depart="20.57516208367097" route="4">
    </vehicle>
      <vehicle id="veh37" type="Car0" depart="21.00114833549629" route="4">
    </vehicle>
      <vehicle id="veh38" type="Car0" depart="21.797446369265497" route="15">
    </vehicle>
      <vehicle id="veh39" type="Car0" depart="21.821555172767393" route="10">
    </vehicle>
      <vehicle id="veh40" type="Car0" depart="21.913276584958144" route="8">
    </vehicle>
      <vehicle id="veh41" type="Car0" depart="22.572607740623052" route="7">
    </vehicle>
      <vehicle id="veh42" type="Car0" depart="22.703587251927658" route="25">
    </vehicle>
      <vehicle id="veh43" type="Car0" depart="22.920972305540122" route="7">
    </vehicle>
      <vehicle id="veh44" type="Car0" depart="23.09285515830645" route="8">
    </vehicle>
      <vehicle id="veh45" type="Car0" depart="23.768528958891075" route="28">
    </vehicle>
      <vehicle id="veh46" type="Car0" depart="24.284258340599354" route="1">
    </vehicle>
      <vehicle id="veh47" type="Car0" depart="25.433234151583605" route="18">
    </vehicle>
      <vehicle id="veh48" type="Car0" depart="26.148290956745218" route="1">
    </vehicle>
      <vehicle id="veh49" type="Car0" depart="27.19034721843912" route="17">
    </vehicle>
      <vehicle id="veh50" type="Car0" depart="27.76800430791802" route="5">
    </vehicle>
</routes>