<!-- number of vehicles:100 -->
<!-- generated on 2022-01-05 17:42:12.575450 by "vehicleFlow.py cars_100_7.rou.xml -m 2 -r 1.5 -t 100" -->
<routes>
  <route id="0" edges="w_to_c1 c1_to_c2 c2_to_e"/>
  <route id="1" edges="n1_to_c1 c1_to_s1"/>
  <route id="2" edges="s1_to_c1 c1_to_n1"/>
  <route id="3" edges="n2_to_c2 c2_to_s2"/>
  <route id="4" edges="e_to_c2 c2_to_c1 c1_to_w"/>
  <route id="5" edges="s2_to_c2 c2_to_n2"/>
  <route id="6" edges="w_to_c1 c1_to_s1"/>
  <route id="7" edges="w_to_c1 c1_to_c2 c2_to_s2"/>
  <route id="8" edges="w_to_c1 c1_to_c2 c2_to_n2"/>
  <route id="9" edges="w_to_c1 c1_to_n1"/>
  <route id="10" edges="s1_to_c1 c1_to_c2 c2_to_s2"/>
  <route id="11" edges="s1_to_c1 c1_to_c2 c2_to_e"/>
  <route id="12" edges="s1_to_c1 c1_to_c2 c2_to_n2"/>
  <route id="13" edges="s1_to_c1 c1_to_w"/>
  <route id="14" edges="s2_to_c2 c2_to_e"/>
  <route id="15" edges="s2_to_c2 c2_to_c1 c1_to_n1"/>
  <route id="16" edges="s2_to_c2 c2_to_c1 c1_to_w"/>
  <route id="17" edges="s2_to_c2 c2_to_c1 c1_to_s1"/>
  <route id="18" edges="e_to_c2 c2_to_n2"/>
  <route id="19" edges="e_to_c2 c2_to_c1 c1_to_n1"/>
  <route id="20" edges="e_to_c2 c2_to_c1 c1_to_s1"/>
  <route id="21" edges="e_to_c2 c2_to_s2"/>
  <route id="22" edges="n2_to_c2 c2_to_c1 c1_to_n1"/>
  <route id="23" edges="n2_to_c2 c2_to_c1 c1_to_w"/>
  <route id="24" edges="n2_to_c2 c2_to_c1 c1_to_s1"/>
  <route id="25" edges="n2_to_c2 c2_to_e"/>
  <route id="26" edges="n1_to_c1 c1_to_w"/>
  <route id="27" edges="n1_to_c1 c1_to_c2 c2_to_s2"/>
  <route id="28" edges="n1_to_c1 c1_to_c2 c2_to_e"/>
  <route id="29" edges="n1_to_c1 c1_to_c2 c2_to_n2"/>

  <vType accel="4" decel="7.5" emergencyDecel="7.5" minGap="5.0" speedDev="0.1" speedFactor="1.2" id="Car0" maxSpeed="27.77" />

      <vehicle id="veh1" type="Car0" depart="1.1015262141120374" route="11">
    </vehicle>
      <vehicle id="veh2" type="Car0" depart="1.457076668461521" route="29">
    </vehicle>
      <vehicle id="veh3" type="Car0" depart="2.199401327251029" route="26">
    </vehicle>
      <vehicle id="veh4" type="Car0" depart="2.5044245550266577" route="21">
    </vehicle>
      <vehicle id="veh5" type="Car0" depart="2.5085285751062942" route="28">
    </vehicle>
      <vehicle id="veh6" type="Car0" depart="3.007635415951146" route="3">
    </vehicle>
      <vehicle id="veh7" type="Car0" depart="3.5791501050197754" route="6">
    </vehicle>
      <vehicle id="veh8" type="Car0" depart="4.582850564402676" route="5">
    </vehicle>
      <vehicle id="veh9" type="Car0" depart="4.896052157827523" route="10">
    </vehicle>
      <vehicle id="veh10" type="Car0" depart="5.401468023230846" route="8">
    </vehicle>
      <vehicle id="veh11" type="Car0" depart="5.79257189091033" route="13">
    </vehicle>
      <vehicle id="veh12" type="Car0" depart="6.103832351215284" route="19">
    </vehicle>
      <vehicle id="veh13" type="Car0" depart="6.479343292618809" route="23">
    </vehicle>
      <vehicle id="veh14" type="Car0" depart="7.563477788976556" route="9">
    </vehicle>
      <vehicle id="veh15" type="Car0" depart="10.931856040788954" route="13">
    </vehicle>
      <vehicle id="veh16" type="Car0" depart="11.327453475378483" route="7">
    </vehicle>
      <vehicle id="veh17" type="Car0" depart="11.920238946580563" route="15">
    </vehicle>
      <vehicle id="veh18" type="Car0" depart="13.96973450147184" route="23">
    </vehicle>
      <vehicle id="veh19" type="Car0" depart="15.513304243507315" route="5">
    </vehicle>
      <vehicle id="veh20" type="Car0" depart="15.705656291660809" route="29">
    </vehicle>
      <vehicle id="veh21" type="Car0" depart="16.59866940181606" route="22">
    </vehicle>
      <vehicle id="veh22" type="Car0" depart="17.564839743154987" route="0">
    </vehicle>
      <vehicle id="veh23" type="Car0" depart="18.392173970538195" route="7">
    </vehicle>
      <vehicle id="veh24" type="Car0" depart="18.39944974817222" route="15">
    </vehicle>
      <vehicle id="veh25" type="Car0" depart="19.45828757492088" route="0">
    </vehicle>
      <vehicle id="veh26" type="Car0" depart="19.55773798775623" route="27">
    </vehicle>
      <vehicle id="veh27" type="Car0" depart="19.71593403196134" route="12">
    </vehicle>
      <vehicle id="veh28" type="Car0" depart="20.458877608583187" route="0">
    </vehicle>
      <vehicle id="veh29" type="Car0" depart="20.57239505637178" route="24">
    </vehicle>
      <vehicle id="veh30" type="Car0" depart="21.309736221137097" route="6">
    </vehicle>
      <vehicle id="veh31" type="Car0" depart="22.34107493832947" route="17">
    </vehicle>
      <vehicle id="veh32" type="Car0" depart="22.537172898845224" route="22">
    </vehicle>
      <vehicle id="veh33" type="Car0" depart="22.858673419794503" route="16">
    </vehicle>
      <vehicle id="veh34" type="Car0" depart="23.46806493734538" route="19">
    </vehicle>
      <vehicle id="veh35" type="Car0" depart="23.787603286758635" route="29">
    </vehicle>
      <vehicle id="veh36" type="Car0" depart="24.09587477702607" route="6">
    </vehicle>
      <vehicle id="veh37" type="Car0" depart="24.23545991243588" route="13">
    </vehicle>
      <vehicle id="veh38" type="Car0" depart="26.313867725448283" route="29">
    </vehicle>
      <vehicle id="veh39" type="Car0" depart="27.84942943818354" route="27">
    </vehicle>
      <vehicle id="veh40" type="Car0" depart="28.903935578006976" route="25">
    </vehicle>
      <vehicle id="veh41" type="Car0" depart="29.530923059575198" route="26">
    </vehicle>
      <vehicle id="veh42" type="Car0" depart="29.699321722940027" route="21">
    </vehicle>
      <vehicle id="veh43" type="Car0" depart="29.784538853478377" route="5">
    </vehicle>
      <vehicle id="veh44" type="Car0" depart="29.811184320117107" route="12">
    </vehicle>
      <vehicle id="veh45" type="Car0" depart="29.970159073729114" route="4">
    </vehicle>
      <vehicle id="veh46" type="Car0" depart="30.364825011627893" route="11">
    </vehicle>
      <vehicle id="veh47" type="Car0" depart="30.832688249981608" route="16">
    </vehicle>
      <vehicle id="veh48" type="Car0" depart="31.305377823891252" route="12">
    </vehicle>
      <vehicle id="veh49" type="Car0" depart="32.02085188422399" route="16">
    </vehicle>
      <vehicle id="veh50" type="Car0" depart="33.04645978577161" route="9">
    </vehicle>
      <vehicle id="veh51" type="Car0" depart="34.13560285256843" route="8">
    </vehicle>
      <vehicle id="veh52" type="Car0" depart="34.79007570186055" route="12">
    </vehicle>
      <vehicle id="veh53" type="Car0" depart="34.8638943417948" route="9">
    </vehicle>
      <vehicle id="veh54" type="Car0" depart="34.87259678680505" route="16">
    </vehicle>
      <vehicle id="veh55" type="Car0" depart="35.85964072281716" route="17">
    </vehicle>
      <vehicle id="veh56" type="Car0" depart="36.181004808251394" route="19">
    </vehicle>
      <vehicle id="veh57" type="Car0" depart="38.77565781988053" route="27">
    </vehicle>
      <vehicle id="veh58" type="Car0" depart="39.251349797750514" route="19">
    </vehicle>
      <vehicle id="veh59" type="Car0" depart="39.640656022461116" route="2">
    </vehicle>
      <vehicle id="veh60" type="Car0" depart="39.852901083807936" route="18">
    </vehicle>
      <vehicle id="veh61" type="Car0" depart="40.578498165785234" route="7">
    </vehicle>
      <vehicle id="veh62" type="Car0" depart="41.01127228161107" route="7">
    </vehicle>
      <vehicle id="veh63" type="Car0" depart="41.16873066778633" route="0">
    </vehicle>
      <vehicle id="veh64" type="Car0" depart="42.659060945571184" route="16">
    </vehicle>
      <vehicle id="veh65" type="Car0" depart="42.776360025211446" route="12">
    </vehicle>
      <vehicle id="veh66" type="Car0" depart="43.97408750202976" route="15">
    </vehicle>
      <vehicle id="veh67" type="Car0" depart="44.34517561411202" route="5">
    </vehicle>
      <vehicle id="veh68" type="Car0" depart="45.43399900647938" route="0">
    </vehicle>
      <vehicle id="veh69" type="Car0" depart="46.48513049424828" route="26">
    </vehicle>
      <vehicle id="veh70" type="Car0" depart="48.28822456075317" route="16">
    </vehicle>
      <vehicle id="veh71" type="Car0" depart="48.484652475252254" route="21">
    </vehicle>
      <vehicle id="veh72" type="Car0" depart="48.711739953277466" route="23">
    </vehicle>
      <vehicle id="veh73" type="Car0" depart="48.91206284020829" route="29">
    </vehicle>
      <vehicle id="veh74" type="Car0" depart="49.2565876301414" route="28">
    </vehicle>
      <vehicle id="veh75" type="Car0" depart="49.80702733062075" route="25">
    </vehicle>
      <vehicle id="veh76" type="Car0" depart="50.05481532631166" route="19">
    </vehicle>
      <vehicle id="veh77" type="Car0" depart="50.16038925579942" route="28">
    </vehicle>
      <vehicle id="veh78" type="Car0" depart="51.51032147164155" route="6">
    </vehicle>
      <vehicle id="veh79" type="Car0" depart="52.45212113694698" route="1">
    </vehicle>
      <vehicle id="veh80" type="Car0" depart="52.57285153403881" route="0">
    </vehicle>
      <vehicle id="veh81" type="Car0" depart="55.11904862616839" route="2">
    </vehicle>
      <vehicle id="veh82" type="Car0" depart="55.27791706539145" route="6">
    </vehicle>
      <vehicle id="veh83" type="Car0" depart="55.3048126358302" route="10">
    </vehicle>
      <vehicle id="veh84" type="Car0" depart="56.156215984053084" route="20">
    </vehicle>
      <vehicle id="veh85" type="Car0" depart="56.472896740594" route="17">
    </vehicle>
      <vehicle id="veh86" type="Car0" depart="56.52518012586122" route="13">
    </vehicle>
      <vehicle id="veh87" type="Car0" depart="56.57425401371264" route="11">
    </vehicle>
      <vehicle id="veh88" type="Car0" depart="56.84211570060041" route="11">
    </vehicle>
      <vehicle id="veh89" type="Car0" depart="57.01096144430579" route="3">
    </vehicle>
      <vehicle id="veh90" type="Car0" depart="57.376235546389104" route="28">
    </vehicle>
      <vehicle id="veh91" type="Car0" depart="58.20064899663688" route="20">
    </vehicle>
      <vehicle id="veh92" type="Car0" depart="59.64291763357312" route="21">
    </vehicle>
      <vehicle id="veh93" type="Car0" depart="59.86506723434019" route="11">
    </vehicle>
      <vehicle id="veh94" type="Car0" depart="60.04930213760356" route="4">
    </vehicle>
      <vehicle id="veh95" type="Car0" depart="60.29076654973397" route="3">
    </vehicle>
      <vehicle id="veh96" type="Car0" depart="60.65210213031595" route="24">
    </vehicle>
      <vehicle id="veh97" type="Car0" depart="60.67328770345306" route="16">
    </vehicle>
      <vehicle id="veh98" type="Car0" depart="60.92065536962111" route="1">
    </vehicle>
      <vehicle id="veh99" type="Car0" depart="61.71779585208913" route="17">
    </vehicle>
      <vehicle id="veh100" type="Car0" depart="61.784702155263695" route="17">
    </vehicle>
</routes>