<!-- number of vehicles:70 -->
<!-- generated on 2022-01-05 17:42:11.294448 by "vehicleFlow.py cars_70_1.rou.xml -m 2 -r 1.5 -t 70" -->
<routes>
  <route id="0" edges="w_to_c1 c1_to_c2 c2_to_e"/>
  <route id="1" edges="n1_to_c1 c1_to_s1"/>
  <route id="2" edges="s1_to_c1 c1_to_n1"/>
  <route id="3" edges="n2_to_c2 c2_to_s2"/>
  <route id="4" edges="e_to_c2 c2_to_c1 c1_to_w"/>
  <route id="5" edges="s2_to_c2 c2_to_n2"/>
  <route id="6" edges="w_to_c1 c1_to_s1"/>
  <route id="7" edges="w_to_c1 c1_to_c2 c2_to_s2"/>
  <route id="8" edges="w_to_c1 c1_to_c2 c2_to_n2"/>
  <route id="9" edges="w_to_c1 c1_to_n1"/>
  <route id="10" edges="s1_to_c1 c1_to_c2 c2_to_s2"/>
  <route id="11" edges="s1_to_c1 c1_to_c2 c2_to_e"/>
  <route id="12" edges="s1_to_c1 c1_to_c2 c2_to_n2"/>
  <route id="13" edges="s1_to_c1 c1_to_w"/>
  <route id="14" edges="s2_to_c2 c2_to_e"/>
  <route id="15" edges="s2_to_c2 c2_to_c1 c1_to_n1"/>
  <route id="16" edges="s2_to_c2 c2_to_c1 c1_to_w"/>
  <route id="17" edges="s2_to_c2 c2_to_c1 c1_to_s1"/>
  <route id="18" edges="e_to_c2 c2_to_n2"/>
  <route id="19" edges="e_to_c2 c2_to_c1 c1_to_n1"/>
  <route id="20" edges="e_to_c2 c2_to_c1 c1_to_s1"/>
  <route id="21" edges="e_to_c2 c2_to_s2"/>
  <route id="22" edges="n2_to_c2 c2_to_c1 c1_to_n1"/>
  <route id="23" edges="n2_to_c2 c2_to_c1 c1_to_w"/>
  <route id="24" edges="n2_to_c2 c2_to_c1 c1_to_s1"/>
  <route id="25" edges="n2_to_c2 c2_to_e"/>
  <route id="26" edges="n1_to_c1 c1_to_w"/>
  <route id="27" edges="n1_to_c1 c1_to_c2 c2_to_s2"/>
  <route id="28" edges="n1_to_c1 c1_to_c2 c2_to_e"/>
  <route id="29" edges="n1_to_c1 c1_to_c2 c2_to_n2"/>

  <vType accel="4" decel="7.5" emergencyDecel="7.5" minGap="5.0" speedDev="0.1" speedFactor="1.2" id="Car0" maxSpeed="27.77" />

      <vehicle id="veh1" type="Car0" depart="1.5855476143174718" route="19">
    </vehicle>
      <vehicle id="veh2" type="Car0" depart="2.830412777386953" route="17">
    </vehicle>
      <vehicle id="veh3" type="Car0" depart="2.845581692164719" route="8">
    </vehicle>
      <vehicle id="veh4" type="Car0" depart="3.136984957844896" route="13">
    </vehicle>
      <vehicle id="veh5" type="Car0" depart="3.699375937783261" route="2">
    </vehicle>
      <vehicle id="veh6" type="Car0" depart="4.866107359372142" route="15">
    </vehicle>
      <vehicle id="veh7" type="Car0" depart="5.360392154590848" route="3">
    </vehicle>
      <vehicle id="veh8" type="Car0" depart="5.853508815489596" route="18">
    </vehicle>
      <vehicle id="veh9" type="Car0" depart="6.322757410244067" route="1">
    </vehicle>
      <vehicle id="veh10" type="Car0" depart="6.512985279849265" route="25">
    </vehicle>
      <vehicle id="veh11" type="Car0" depart="6.679360924368945" route="22">
    </vehicle>
      <vehicle id="veh12" type="Car0" depart="7.528575623464308" route="23">
    </vehicle>
      <vehicle id="veh13" type="Car0" depart="7.905851948566794" route="22">
    </vehicle>
      <vehicle id="veh14" type="Car0" depart="10.661670608103346" route="0">
    </vehicle>
      <vehicle id="veh15" type="Car0" depart="11.779465274088622" route="8">
    </vehicle>
      <vehicle id="veh16" type="Car0" depart="12.21399243769975" route="16">
    </vehicle>
      <vehicle id="veh17" type="Car0" depart="12.518286213183242" route="12">
    </vehicle>
      <vehicle id="veh18" type="Car0" depart="12.635715914714051" route="17">
    </vehicle>
      <vehicle id="veh19" type="Car0" depart="12.646537517596093" route="17">
    </vehicle>
      <vehicle id="veh20" type="Car0" depart="12.888174092352063" route="12">
    </vehicle>
      <vehicle id="veh21" type="Car0" depart="13.450676851535736" route="15">
    </vehicle>
      <vehicle id="veh22" type="Car0" depart="14.142255299270289" route="15">
    </vehicle>
      <vehicle id="veh23" type="Car0" depart="14.274322689540604" route="8">
    </vehicle>
      <vehicle id="veh24" type="Car0" depart="15.054407830082651" route="3">
    </vehicle>
      <vehicle id="veh25" type="Car0" depart="15.06008798516352" route="26">
    </vehicle>
      <vehicle id="veh26" type="Car0" depart="15.7175972674434" route="1">
    </vehicle>
      <vehicle id="veh27" type="Car0" depart="16.406099013830413" route="16">
    </vehicle>
      <vehicle id="veh28" type="Car0" depart="16.492791421163474" route="1">
    </vehicle>
      <vehicle id="veh29" type="Car0" depart="16.59474964481937" route="28">
    </vehicle>
      <vehicle id="veh30" type="Car0" depart="16.68287212689578" route="4">
    </vehicle>
      <vehicle id="veh31" type="Car0" depart="18.258943287157603" route="19">
    </vehicle>
      <vehicle id="veh32" type="Car0" depart="18.672353188443196" route="5">
    </vehicle>
      <vehicle id="veh33" type="Car0" depart="21.09896075569804" route="18">
    </vehicle>
      <vehicle id="veh34" type="Car0" depart="21.31055277641073" route="0">
    </vehicle>
      <vehicle id="veh35" type="Car0" depart="23.239601037946603" route="28">
    </vehicle>
      <vehicle id="veh36" type="Car0" depart="23.662033006920414" route="14">
    </vehicle>
      <vehicle id="veh37" type="Car0" depart="24.585847813104312" route="2">
    </vehicle>
      <vehicle id="veh38" type="Car0" depart="26.165531124159056" route="29">
    </vehicle>
      <vehicle id="veh39" type="Car0" depart="27.58723201565078" route="12">
    </vehicle>
      <vehicle id="veh40" type="Car0" depart="27.780717981545923" route="0">
    </vehicle>
      <vehicle id="veh41" type="Car0" depart="29.51272460570919" route="20">
    </vehicle>
      <vehicle id="veh42" type="Car0" depart="29.5919595207619" route="5">
    </vehicle>
      <vehicle id="veh43" type="Car0" depart="29.83756771318105" route="21">
    </vehicle>
      <vehicle id="veh44" type="Car0" depart="30.51264527534505" route="16">
    </vehicle>
      <vehicle id="veh45" type="Car0" depart="30.68670072063949" route="1">
    </vehicle>
      <vehicle id="veh46" type="Car0" depart="31.642561341853582" route="26">
    </vehicle>
      <vehicle id="veh47" type="Car0" depart="31.926495483906955" route="29">
    </vehicle>
      <vehicle id="veh48" type="Car0" depart="32.1044834541264" route="22">
    </vehicle>
      <vehicle id="veh49" type="Car0" depart="32.451275233758345" route="8">
    </vehicle>
      <vehicle id="veh50" type="Car0" depart="32.581000905232806" route="23">
    </vehicle>
      <vehicle id="veh51" type="Car0" depart="33.59842099025173" route="20">
    </vehicle>
      <vehicle id="veh52" type="Car0" depart="34.103754754843266" route="13">
    </vehicle>
      <vehicle id="veh53" type="Car0" depart="35.42461546129752" route="8">
    </vehicle>
      <vehicle id="veh54" type="Car0" depart="35.691173573265324" route="17">
    </vehicle>
      <vehicle id="veh55" type="Car0" depart="36.03930233687661" route="20">
    </vehicle>
      <vehicle id="veh56" type="Car0" depart="37.2906362133872" route="11">
    </vehicle>
      <vehicle id="veh57" type="Car0" depart="37.57329272910498" route="20">
    </vehicle>
      <vehicle id="veh58" type="Car0" depart="38.68528841392566" route="24">
    </vehicle>
      <vehicle id="veh59" type="Car0" depart="39.13811547972328" route="24">
    </vehicle>
      <vehicle id="veh60" type="Car0" depart="39.34601377965503" route="21">
    </vehicle>
      <vehicle id="veh61" type="Car0" depart="39.78867211734059" route="5">
    </vehicle>
      <vehicle id="veh62" type="Car0" depart="41.41675146548556" route="29">
    </vehicle>
      <vehicle id="veh63" type="Car0" depart="41.753170633529045" route="8">
    </vehicle>
      <vehicle id="veh64" type="Car0" depart="41.86721469028216" route="6">
    </vehicle>
      <vehicle id="veh65" type="Car0" depart="42.266634643993775" route="13">
    </vehicle>
      <vehicle id="veh66" type="Car0" depart="46.474379017336325" route="16">
    </vehicle>
      <vehicle id="veh67" type="Car0" depart="47.35606777266414" route="17">
    </vehicle>
      <vehicle id="veh68" type="Car0" depart="47.60482216906162" route="27">
    </vehicle>
      <vehicle id="veh69" type="Car0" depart="48.50929254926941" route="25">
    </vehicle>
      <vehicle id="veh70" type="Car0" depart="49.4260668987787" route="14">
    </vehicle>
</routes>