<!-- number of vehicles:40 -->
<!-- generated on 2022-01-05 17:42:11.841955 by "vehicleFlow.py cars_40_4.rou.xml -m 2 -r 1.5 -t 40" -->
<routes>
  <route id="0" edges="w_to_c1 c1_to_c2 c2_to_e"/>
  <route id="1" edges="n1_to_c1 c1_to_s1"/>
  <route id="2" edges="s1_to_c1 c1_to_n1"/>
  <route id="3" edges="n2_to_c2 c2_to_s2"/>
  <route id="4" edges="e_to_c2 c2_to_c1 c1_to_w"/>
  <route id="5" edges="s2_to_c2 c2_to_n2"/>
  <route id="6" edges="w_to_c1 c1_to_s1"/>
  <route id="7" edges="w_to_c1 c1_to_c2 c2_to_s2"/>
  <route id="8" edges="w_to_c1 c1_to_c2 c2_to_n2"/>
  <route id="9" edges="w_to_c1 c1_to_n1"/>
  <route id="10" edges="s1_to_c1 c1_to_c2 c2_to_s2"/>
  <route id="11" edges="s1_to_c1 c1_to_c2 c2_to_e"/>
  <route id="12" edges="s1_to_c1 c1_to_c2 c2_to_n2"/>
  <route id="13" edges="s1_to_c1 c1_to_w"/>
  <route id="14" edges="s2_to_c2 c2_to_e"/>
  <route id="15" edges="s2_to_c2 c2_to_c1 c1_to_n1"/>
  <route id="16" edges="s2_to_c2 c2_to_c1 c1_to_w"/>
  <route id="17" edges="s2_to_c2 c2_to_c1 c1_to_s1"/>
  <route id="18" edges="e_to_c2 c2_to_n2"/>
  <route id="19" edges="e_to_c2 c2_to_c1 c1_to_n1"/>
  <route id="20" edges="e_to_c2 c2_to_c1 c1_to_s1"/>
  <route id="21" edges="e_to_c2 c2_to_s2"/>
  <route id="22" edges="n2_to_c2 c2_to_c1 c1_to_n1"/>
  <route id="23" edges="n2_to_c2 c2_to_c1 c1_to_w"/>
  <route id="24" edges="n2_to_c2 c2_to_c1 c1_to_s1"/>
  <route id="25" edges="n2_to_c2 c2_to_e"/>
  <route id="26" edges="n1_to_c1 c1_to_w"/>
  <route id="27" edges="n1_to_c1 c1_to_c2 c2_to_s2"/>
  <route id="28" edges="n1_to_c1 c1_to_c2 c2_to_e"/>
  <route id="29" edges="n1_to_c1 c1_to_c2 c2_to_n2"/>

  <vType accel="4" decel="7.5" emergencyDecel="7.5" minGap="5.0" speedDev="0.1" speedFactor="1.2" id="Car0" maxSpeed="27.77" />

      <vehicle id="veh1" type="Car0" depart="1.243338845499232" route="13">
    </vehicle>
      <vehicle id="veh2" type="Car0" depart="1.3119496332881109" route="12">
    </vehicle>
      <vehicle id="veh3" type="Car0" depart="2.879281088928961" route="23">
    </vehicle>
      <vehicle id="veh4" type="Car0" depart="3.0198466680270837" route="17">
    </vehicle>
      <vehicle id="veh5" type="Car0" depart="4.421923182773263" route="24">
    </vehicle>
      <vehicle id="veh6" type="Car0" depart="4.504305723060187" route="3">
    </vehicle>
      <vehicle id="veh7" type="Car0" depart="5.793146980683947" route="13">
    </vehicle>
      <vehicle id="veh8" type="Car0" depart="5.880844732190938" route="7">
    </vehicle>
      <vehicle id="veh9" type="Car0" depart="6.913760672527674" route="29">
    </vehicle>
      <vehicle id="veh10" type="Car0" depart="6.988897317710304" route="13">
    </vehicle>
      <vehicle id="veh11" type="Car0" depart="7.602526367466815" route="25">
    </vehicle>
      <vehicle id="veh12" type="Car0" depart="7.735519381352711" route="22">
    </vehicle>
      <vehicle id="veh13" type="Car0" depart="9.001822656542844" route="14">
    </vehicle>
      <vehicle id="veh14" type="Car0" depart="9.878990506955097" route="17">
    </vehicle>
      <vehicle id="veh15" type="Car0" depart="12.261687873419481" route="8">
    </vehicle>
      <vehicle id="veh16" type="Car0" depart="17.17580455897835" route="1">
    </vehicle>
      <vehicle id="veh17" type="Car0" depart="19.821146173069938" route="14">
    </vehicle>
      <vehicle id="veh18" type="Car0" depart="20.35397427271504" route="0">
    </vehicle>
      <vehicle id="veh19" type="Car0" depart="20.359179201020662" route="5">
    </vehicle>
      <vehicle id="veh20" type="Car0" depart="20.544331015282555" route="24">
    </vehicle>
      <vehicle id="veh21" type="Car0" depart="20.79476870985893" route="17">
    </vehicle>
      <vehicle id="veh22" type="Car0" depart="20.857567244800638" route="27">
    </vehicle>
      <vehicle id="veh23" type="Car0" depart="21.85088861362013" route="10">
    </vehicle>
      <vehicle id="veh24" type="Car0" depart="22.35582588784524" route="13">
    </vehicle>
      <vehicle id="veh25" type="Car0" depart="22.70577383117302" route="7">
    </vehicle>
      <vehicle id="veh26" type="Car0" depart="22.96795168271982" route="14">
    </vehicle>
      <vehicle id="veh27" type="Car0" depart="23.219578362542883" route="13">
    </vehicle>
      <vehicle id="veh28" type="Car0" depart="24.918593338790906" route="26">
    </vehicle>
      <vehicle id="veh29" type="Car0" depart="25.032154266674944" route="1">
    </vehicle>
      <vehicle id="veh30" type="Car0" depart="25.523560711750527" route="0">
    </vehicle>
      <vehicle id="veh31" type="Car0" depart="25.55461897677963" route="11">
    </vehicle>
      <vehicle id="veh32" type="Car0" depart="25.732377534099964" route="11">
    </vehicle>
      <vehicle id="veh33" type="Car0" depart="25.88732808676627" route="12">
    </vehicle>
      <vehicle id="veh34" type="Car0" depart="26.111405137484866" route="28">
    </vehicle>
      <vehicle id="veh35" type="Car0" depart="27.2931034732876" route="18">
    </vehicle>
      <vehicle id="veh36" type="Car0" depart="28.773721250399415" route="1">
    </vehicle>
      <vehicle id="veh37" type="Car0" depart="29.605871203206913" route="24">
    </vehicle>
      <vehicle id="veh38" type="Car0" depart="29.841119044428655" route="13">
    </vehicle>
      <vehicle id="veh39" type="Car0" depart="30.325592992820777" route="13">
    </vehicle>
      <vehicle id="veh40" type="Car0" depart="30.848606568112473" route="7">
    </vehicle>
</routes>