<!-- number of vehicles:100 -->
<!-- generated on 2022-01-05 17:42:11.760242 by "vehicleFlow.py cars_100_3.rou.xml -m 2 -r 1.5 -t 100" -->
<routes>
  <route id="0" edges="w_to_c1 c1_to_c2 c2_to_e"/>
  <route id="1" edges="n1_to_c1 c1_to_s1"/>
  <route id="2" edges="s1_to_c1 c1_to_n1"/>
  <route id="3" edges="n2_to_c2 c2_to_s2"/>
  <route id="4" edges="e_to_c2 c2_to_c1 c1_to_w"/>
  <route id="5" edges="s2_to_c2 c2_to_n2"/>
  <route id="6" edges="w_to_c1 c1_to_s1"/>
  <route id="7" edges="w_to_c1 c1_to_c2 c2_to_s2"/>
  <route id="8" edges="w_to_c1 c1_to_c2 c2_to_n2"/>
  <route id="9" edges="w_to_c1 c1_to_n1"/>
  <route id="10" edges="s1_to_c1 c1_to_c2 c2_to_s2"/>
  <route id="11" edges="s1_to_c1 c1_to_c2 c2_to_e"/>
  <route id="12" edges="s1_to_c1 c1_to_c2 c2_to_n2"/>
  <route id="13" edges="s1_to_c1 c1_to_w"/>
  <route id="14" edges="s2_to_c2 c2_to_e"/>
  <route id="15" edges="s2_to_c2 c2_to_c1 c1_to_n1"/>
  <route id="16" edges="s2_to_c2 c2_to_c1 c1_to_w"/>
  <route id="17" edges="s2_to_c2 c2_to_c1 c1_to_s1"/>
  <route id="18" edges="e_to_c2 c2_to_n2"/>
  <route id="19" edges="e_to_c2 c2_to_c1 c1_to_n1"/>
  <route id="20" edges="e_to_c2 c2_to_c1 c1_to_s1"/>
  <route id="21" edges="e_to_c2 c2_to_s2"/>
  <route id="22" edges="n2_to_c2 c2_to_c1 c1_to_n1"/>
  <route id="23" edges="n2_to_c2 c2_to_c1 c1_to_w"/>
  <route id="24" edges="n2_to_c2 c2_to_c1 c1_to_s1"/>
  <route id="25" edges="n2_to_c2 c2_to_e"/>
  <route id="26" edges="n1_to_c1 c1_to_w"/>
  <route id="27" edges="n1_to_c1 c1_to_c2 c2_to_s2"/>
  <route id="28" edges="n1_to_c1 c1_to_c2 c2_to_e"/>
  <route id="29" edges="n1_to_c1 c1_to_c2 c2_to_n2"/>

  <vType accel="4" decel="7.5" emergencyDecel="7.5" minGap="5.0" speedDev="0.1" speedFactor="1.2" id="Car0" maxSpeed="27.77" />

      <vehicle id="veh1" type="Car0" depart="0.3711777916549575" route="22">
    </vehicle>
      <vehicle id="veh2" type="Car0" depart="0.40032978680155096" route="29">
    </vehicle>
      <vehicle id="veh3" type="Car0" depart="0.534357299150804" route="5">
    </vehicle>
      <vehicle id="veh4" type="Car0" depart="2.180643878193894" route="5">
    </vehicle>
      <vehicle id="veh5" type="Car0" depart="2.229426727141469" route="25">
    </vehicle>
      <vehicle id="veh6" type="Car0" depart="2.3104225267718954" route="8">
    </vehicle>
      <vehicle id="veh7" type="Car0" depart="2.3221687681838645" route="9">
    </vehicle>
      <vehicle id="veh8" type="Car0" depart="3.3125047924646984" route="4">
    </vehicle>
      <vehicle id="veh9" type="Car0" depart="4.678833461681866" route="10">
    </vehicle>
      <vehicle id="veh10" type="Car0" depart="5.237595235199133" route="10">
    </vehicle>
      <vehicle id="veh11" type="Car0" depart="5.684666206251447" route="8">
    </vehicle>
      <vehicle id="veh12" type="Car0" depart="6.082123491838552" route="28">
    </vehicle>
      <vehicle id="veh13" type="Car0" depart="6.4207703497326944" route="25">
    </vehicle>
      <vehicle id="veh14" type="Car0" depart="6.576551161812918" route="18">
    </vehicle>
      <vehicle id="veh15" type="Car0" depart="8.049983986641998" route="27">
    </vehicle>
      <vehicle id="veh16" type="Car0" depart="8.992648511486392" route="9">
    </vehicle>
      <vehicle id="veh17" type="Car0" depart="10.274387641569978" route="24">
    </vehicle>
      <vehicle id="veh18" type="Car0" depart="11.090794672624071" route="4">
    </vehicle>
      <vehicle id="veh19" type="Car0" depart="11.296555946385268" route="6">
    </vehicle>
      <vehicle id="veh20" type="Car0" depart="11.898928629926155" route="11">
    </vehicle>
      <vehicle id="veh21" type="Car0" depart="13.297260576607794" route="19">
    </vehicle>
      <vehicle id="veh22" type="Car0" depart="13.303166604757198" route="29">
    </vehicle>
      <vehicle id="veh23" type="Car0" depart="13.722338696904455" route="22">
    </vehicle>
      <vehicle id="veh24" type="Car0" depart="14.032489004603192" route="13">
    </vehicle>
      <vehicle id="veh25" type="Car0" depart="14.417974812975562" route="29">
    </vehicle>
      <vehicle id="veh26" type="Car0" depart="14.885145999979146" route="10">
    </vehicle>
      <vehicle id="veh27" type="Car0" depart="14.928908495654174" route="5">
    </vehicle>
      <vehicle id="veh28" type="Car0" depart="15.94089993671409" route="5">
    </vehicle>
      <vehicle id="veh29" type="Car0" depart="16.309596017615032" route="26">
    </vehicle>
      <vehicle id="veh30" type="Car0" depart="16.91666603406611" route="20">
    </vehicle>
      <vehicle id="veh31" type="Car0" depart="17.949134840556983" route="24">
    </vehicle>
      <vehicle id="veh32" type="Car0" depart="18.530668629170783" route="1">
    </vehicle>
      <vehicle id="veh33" type="Car0" depart="19.877981557921775" route="3">
    </vehicle>
      <vehicle id="veh34" type="Car0" depart="20.550577133929465" route="3">
    </vehicle>
      <vehicle id="veh35" type="Car0" depart="21.160415813588266" route="18">
    </vehicle>
      <vehicle id="veh36" type="Car0" depart="21.81107602344529" route="8">
    </vehicle>
      <vehicle id="veh37" type="Car0" depart="23.243125057880267" route="24">
    </vehicle>
      <vehicle id="veh38" type="Car0" depart="23.565679653340304" route="17">
    </vehicle>
      <vehicle id="veh39" type="Car0" depart="24.841983076130134" route="7">
    </vehicle>
      <vehicle id="veh40" type="Car0" depart="25.300946727296974" route="22">
    </vehicle>
      <vehicle id="veh41" type="Car0" depart="28.07959431551913" route="12">
    </vehicle>
      <vehicle id="veh42" type="Car0" depart="28.239679766816575" route="23">
    </vehicle>
      <vehicle id="veh43" type="Car0" depart="29.91840493211059" route="2">
    </vehicle>
      <vehicle id="veh44" type="Car0" depart="30.46659786178875" route="21">
    </vehicle>
      <vehicle id="veh45" type="Car0" depart="30.67683074044204" route="8">
    </vehicle>
      <vehicle id="veh46" type="Car0" depart="31.23601296182305" route="16">
    </vehicle>
      <vehicle id="veh47" type="Car0" depart="34.25675104054199" route="1">
    </vehicle>
      <vehicle id="veh48" type="Car0" depart="35.138707362878975" route="22">
    </vehicle>
      <vehicle id="veh49" type="Car0" depart="36.66233428321983" route="13">
    </vehicle>
      <vehicle id="veh50" type="Car0" depart="36.98521592081066" route="18">
    </vehicle>
      <vehicle id="veh51" type="Car0" depart="38.296296873126145" route="16">
    </vehicle>
      <vehicle id="veh52" type="Car0" depart="39.34317216425101" route="28">
    </vehicle>
      <vehicle id="veh53" type="Car0" depart="39.47759637878795" route="15">
    </vehicle>
      <vehicle id="veh54" type="Car0" depart="41.716357083652596" route="7">
    </vehicle>
      <vehicle id="veh55" type="Car0" depart="42.69607593379125" route="24">
    </vehicle>
      <vehicle id="veh56" type="Car0" depart="43.48161099733622" route="0">
    </vehicle>
      <vehicle id="veh57" type="Car0" depart="43.552662962754894" route="11">
    </vehicle>
      <vehicle id="veh58" type="Car0" depart="44.00917745319548" route="1">
    </vehicle>
      <vehicle id="veh59" type="Car0" depart="44.268570554951545" route="5">
    </vehicle>
      <vehicle id="veh60" type="Car0" depart="45.03144851892858" route="16">
    </vehicle>
      <vehicle id="veh61" type="Car0" depart="45.3036752789312" route="0">
    </vehicle>
      <vehicle id="veh62" type="Car0" depart="45.43071868485451" route="24">
    </vehicle>
      <vehicle id="veh63" type="Car0" depart="45.689002630780074" route="19">
    </vehicle>
      <vehicle id="veh64" type="Car0" depart="45.98786645836719" route="29">
    </vehicle>
      <vehicle id="veh65" type="Car0" depart="46.88193615628041" route="28">
    </vehicle>
      <vehicle id="veh66" type="Car0" depart="47.08284733780931" route="24">
    </vehicle>
      <vehicle id="veh67" type="Car0" depart="47.11192784377048" route="2">
    </vehicle>
      <vehicle id="veh68" type="Car0" depart="47.511731252662884" route="18">
    </vehicle>
      <vehicle id="veh69" type="Car0" depart="48.108531834628465" route="5">
    </vehicle>
      <vehicle id="veh70" type="Car0" depart="49.069847067608045" route="27">
    </vehicle>
      <vehicle id="veh71" type="Car0" depart="49.239633996539254" route="0">
    </vehicle>
      <vehicle id="veh72" type="Car0" depart="51.117249374576154" route="23">
    </vehicle>
      <vehicle id="veh73" type="Car0" depart="51.798628670989125" route="25">
    </vehicle>
      <vehicle id="veh74" type="Car0" depart="52.679316090447934" route="2">
    </vehicle>
      <vehicle id="veh75" type="Car0" depart="52.97506058368312" route="4">
    </vehicle>
      <vehicle id="veh76" type="Car0" depart="54.73012065120489" route="15">
    </vehicle>
      <vehicle id="veh77" type="Car0" depart="55.03537963529205" route="23">
    </vehicle>
      <vehicle id="veh78" type="Car0" depart="55.581693976138915" route="10">
    </vehicle>
      <vehicle id="veh79" type="Car0" depart="56.1213532732206" route="4">
    </vehicle>
      <vehicle id="veh80" type="Car0" depart="56.269148172591436" route="22">
    </vehicle>
      <vehicle id="veh81" type="Car0" depart="56.60619359811089" route="3">
    </vehicle>
      <vehicle id="veh82" type="Car0" depart="57.29537375412789" route="28">
    </vehicle>
      <vehicle id="veh83" type="Car0" depart="58.36995265820413" route="29">
    </vehicle>
      <vehicle id="veh84" type="Car0" depart="58.62887431918995" route="3">
    </vehicle>
      <vehicle id="veh85" type="Car0" depart="59.250777462912446" route="15">
    </vehicle>
      <vehicle id="veh86" type="Car0" depart="59.64616210989758" route="14">
    </vehicle>
      <vehicle id="veh87" type="Car0" depart="60.11722880041352" route="12">
    </vehicle>
      <vehicle id="veh88" type="Car0" depart="60.15380394182907" route="2">
    </vehicle>
      <vehicle id="veh89" type="Car0" depart="60.940796001642774" route="24">
    </vehicle>
      <vehicle id="veh90" type="Car0" depart="61.240918453679306" route="5">
    </vehicle>
      <vehicle id="veh91" type="Car0" depart="61.893692872605676" route="26">
    </vehicle>
      <vehicle id="veh92" type="Car0" depart="62.46144350962265" route="11">
    </vehicle>
      <vehicle id="veh93" type="Car0" depart="62.55967298770502" route="7">
    </vehicle>
      <vehicle id="veh94" type="Car0" depart="62.85247703241467" route="23">
    </vehicle>
      <vehicle id="veh95" type="Car0" depart="62.973348319107515" route="3">
    </vehicle>
      <vehicle id="veh96" type="Car0" depart="63.20798812532418" route="5">
    </vehicle>
      <vehicle id="veh97" type="Car0" depart="65.24225530576015" route="22">
    </vehicle>
      <vehicle id="veh98" type="Car0" depart="65.97822717030674" route="26">
    </vehicle>
      <vehicle id="veh99" type="Car0" depart="67.08877548502814" route="26">
    </vehicle>
      <vehicle id="veh100" type="Car0" depart="67.81040537531855" route="3">
    </vehicle>
</routes>