<!-- number of vehicles:30 -->
<!-- generated on 2022-01-05 17:42:11.416197 by "vehicleFlow.py cars_30_2.rou.xml -m 2 -r 1.5 -t 30" -->
<routes>
  <route id="0" edges="w_to_c1 c1_to_c2 c2_to_e"/>
  <route id="1" edges="n1_to_c1 c1_to_s1"/>
  <route id="2" edges="s1_to_c1 c1_to_n1"/>
  <route id="3" edges="n2_to_c2 c2_to_s2"/>
  <route id="4" edges="e_to_c2 c2_to_c1 c1_to_w"/>
  <route id="5" edges="s2_to_c2 c2_to_n2"/>
  <route id="6" edges="w_to_c1 c1_to_s1"/>
  <route id="7" edges="w_to_c1 c1_to_c2 c2_to_s2"/>
  <route id="8" edges="w_to_c1 c1_to_c2 c2_to_n2"/>
  <route id="9" edges="w_to_c1 c1_to_n1"/>
  <route id="10" edges="s1_to_c1 c1_to_c2 c2_to_s2"/>
  <route id="11" edges="s1_to_c1 c1_to_c2 c2_to_e"/>
  <route id="12" edges="s1_to_c1 c1_to_c2 c2_to_n2"/>
  <route id="13" edges="s1_to_c1 c1_to_w"/>
  <route id="14" edges="s2_to_c2 c2_to_e"/>
  <route id="15" edges="s2_to_c2 c2_to_c1 c1_to_n1"/>
  <route id="16" edges="s2_to_c2 c2_to_c1 c1_to_w"/>
  <route id="17" edges="s2_to_c2 c2_to_c1 c1_to_s1"/>
  <route id="18" edges="e_to_c2 c2_to_n2"/>
  <route id="19" edges="e_to_c2 c2_to_c1 c1_to_n1"/>
  <route id="20" edges="e_to_c2 c2_to_c1 c1_to_s1"/>
  <route id="21" edges="e_to_c2 c2_to_s2"/>
  <route id="22" edges="n2_to_c2 c2_to_c1 c1_to_n1"/>
  <route id="23" edges="n2_to_c2 c2_to_c1 c1_to_w"/>
  <route id="24" edges="n2_to_c2 c2_to_c1 c1_to_s1"/>
  <route id="25" edges="n2_to_c2 c2_to_e"/>
  <route id="26" edges="n1_to_c1 c1_to_w"/>
  <route id="27" edges="n1_to_c1 c1_to_c2 c2_to_s2"/>
  <route id="28" edges="n1_to_c1 c1_to_c2 c2_to_e"/>
  <route id="29" edges="n1_to_c1 c1_to_c2 c2_to_n2"/>

  <vType accel="4" decel="7.5" emergencyDecel="7.5" minGap="5.0" speedDev="0.1" speedFactor="1.2" id="Car0" maxSpeed="27.77" />

      <vehicle id="veh1" type="Car0" depart="1.9072724192049142" route="8">
    </vehicle>
      <vehicle id="veh2" type="Car0" depart="2.3823579483281647" route="10">
    </vehicle>
      <vehicle id="veh3" type="Car0" depart="3.847132717043108" route="10">
    </vehicle>
      <vehicle id="veh4" type="Car0" depart="5.021322319200282" route="16">
    </vehicle>
      <vehicle id="veh5" type="Car0" depart="5.146842496749773" route="4">
    </vehicle>
      <vehicle id="veh6" type="Car0" depart="6.067330565326026" route="26">
    </vehicle>
      <vehicle id="veh7" type="Car0" depart="6.487978483619394" route="13">
    </vehicle>
      <vehicle id="veh8" type="Car0" depart="7.305210792451777" route="6">
    </vehicle>
      <vehicle id="veh9" type="Car0" depart="8.624393478787214" route="0">
    </vehicle>
      <vehicle id="veh10" type="Car0" depart="10.064915670980918" route="15">
    </vehicle>
      <vehicle id="veh11" type="Car0" depart="10.829623748272997" route="12">
    </vehicle>
      <vehicle id="veh12" type="Car0" depart="12.032228560202965" route="14">
    </vehicle>
      <vehicle id="veh13" type="Car0" depart="12.702258773383324" route="0">
    </vehicle>
      <vehicle id="veh14" type="Car0" depart="12.732106247267895" route="20">
    </vehicle>
      <vehicle id="veh15" type="Car0" depart="13.499410981158345" route="20">
    </vehicle>
      <vehicle id="veh16" type="Car0" depart="14.436459785833364" route="6">
    </vehicle>
      <vehicle id="veh17" type="Car0" depart="14.577651246174254" route="11">
    </vehicle>
      <vehicle id="veh18" type="Car0" depart="14.867028465408772" route="3">
    </vehicle>
      <vehicle id="veh19" type="Car0" depart="15.117874250086011" route="1">
    </vehicle>
      <vehicle id="veh20" type="Car0" depart="15.76743397715101" route="15">
    </vehicle>
      <vehicle id="veh21" type="Car0" depart="16.849326039051697" route="7">
    </vehicle>
      <vehicle id="veh22" type="Car0" depart="17.999805457723596" route="7">
    </vehicle>
      <vehicle id="veh23" type="Car0" depart="18.141532953812824" route="8">
    </vehicle>
      <vehicle id="veh24" type="Car0" depart="18.89609261563854" route="6">
    </vehicle>
      <vehicle id="veh25" type="Car0" depart="19.47754678841704" route="22">
    </vehicle>
      <vehicle id="veh26" type="Car0" depart="20.22486866107441" route="1">
    </vehicle>
      <vehicle id="veh27" type="Car0" depart="21.251220336099408" route="13">
    </vehicle>
      <vehicle id="veh28" type="Car0" depart="22.28504480672902" route="5">
    </vehicle>
      <vehicle id="veh29" type="Car0" depart="26.48205748085789" route="12">
    </vehicle>
      <vehicle id="veh30" type="Car0" depart="27.191431837093546" route="11">
    </vehicle>
</routes>