<!-- number of vehicles:40 -->
<!-- generated on 2022-01-05 17:42:11.638290 by "vehicleFlow.py cars_40_3.rou.xml -m 2 -r 1.5 -t 40" -->
<routes>
  <route id="0" edges="w_to_c1 c1_to_c2 c2_to_e"/>
  <route id="1" edges="n1_to_c1 c1_to_s1"/>
  <route id="2" edges="s1_to_c1 c1_to_n1"/>
  <route id="3" edges="n2_to_c2 c2_to_s2"/>
  <route id="4" edges="e_to_c2 c2_to_c1 c1_to_w"/>
  <route id="5" edges="s2_to_c2 c2_to_n2"/>
  <route id="6" edges="w_to_c1 c1_to_s1"/>
  <route id="7" edges="w_to_c1 c1_to_c2 c2_to_s2"/>
  <route id="8" edges="w_to_c1 c1_to_c2 c2_to_n2"/>
  <route id="9" edges="w_to_c1 c1_to_n1"/>
  <route id="10" edges="s1_to_c1 c1_to_c2 c2_to_s2"/>
  <route id="11" edges="s1_to_c1 c1_to_c2 c2_to_e"/>
  <route id="12" edges="s1_to_c1 c1_to_c2 c2_to_n2"/>
  <route id="13" edges="s1_to_c1 c1_to_w"/>
  <route id="14" edges="s2_to_c2 c2_to_e"/>
  <route id="15" edges="s2_to_c2 c2_to_c1 c1_to_n1"/>
  <route id="16" edges="s2_to_c2 c2_to_c1 c1_to_w"/>
  <route id="17" edges="s2_to_c2 c2_to_c1 c1_to_s1"/>
  <route id="18" edges="e_to_c2 c2_to_n2"/>
  <route id="19" edges="e_to_c2 c2_to_c1 c1_to_n1"/>
  <route id="20" edges="e_to_c2 c2_to_c1 c1_to_s1"/>
  <route id="21" edges="e_to_c2 c2_to_s2"/>
  <route id="22" edges="n2_to_c2 c2_to_c1 c1_to_n1"/>
  <route id="23" edges="n2_to_c2 c2_to_c1 c1_to_w"/>
  <route id="24" edges="n2_to_c2 c2_to_c1 c1_to_s1"/>
  <route id="25" edges="n2_to_c2 c2_to_e"/>
  <route id="26" edges="n1_to_c1 c1_to_w"/>
  <route id="27" edges="n1_to_c1 c1_to_c2 c2_to_s2"/>
  <route id="28" edges="n1_to_c1 c1_to_c2 c2_to_e"/>
  <route id="29" edges="n1_to_c1 c1_to_c2 c2_to_n2"/>

  <vType accel="4" decel="7.5" emergencyDecel="7.5" minGap="5.0" speedDev="0.1" speedFactor="1.2" id="Car0" maxSpeed="27.77" />

      <vehicle id="veh1" type="Car0" depart="0.1590971546808642" route="19">
    </vehicle>
      <vehicle id="veh2" type="Car0" depart="1.1758687128862093" route="0">
    </vehicle>
      <vehicle id="veh3" type="Car0" depart="1.70246380073936" route="24">
    </vehicle>
      <vehicle id="veh4" type="Car0" depart="2.237939937455341" route="2">
    </vehicle>
      <vehicle id="veh5" type="Car0" depart="2.2535865005790354" route="26">
    </vehicle>
      <vehicle id="veh6" type="Car0" depart="2.573458550185951" route="19">
    </vehicle>
      <vehicle id="veh7" type="Car0" depart="3.085863686118903" route="11">
    </vehicle>
      <vehicle id="veh8" type="Car0" depart="3.4962362998592162" route="8">
    </vehicle>
      <vehicle id="veh9" type="Car0" depart="3.929762115552495" route="16">
    </vehicle>
      <vehicle id="veh10" type="Car0" depart="4.262263039636519" route="27">
    </vehicle>
      <vehicle id="veh11" type="Car0" depart="4.761972161065992" route="6">
    </vehicle>
      <vehicle id="veh12" type="Car0" depart="4.8716708967761475" route="0">
    </vehicle>
      <vehicle id="veh13" type="Car0" depart="6.280281523009217" route="20">
    </vehicle>
      <vehicle id="veh14" type="Car0" depart="6.590974162256713" route="24">
    </vehicle>
      <vehicle id="veh15" type="Car0" depart="7.5731567506440305" route="20">
    </vehicle>
      <vehicle id="veh16" type="Car0" depart="7.985315788146204" route="28">
    </vehicle>
      <vehicle id="veh17" type="Car0" depart="8.806548393197785" route="11">
    </vehicle>
      <vehicle id="veh18" type="Car0" depart="8.928520552662878" route="8">
    </vehicle>
      <vehicle id="veh19" type="Car0" depart="10.02678126731468" route="8">
    </vehicle>
      <vehicle id="veh20" type="Car0" depart="10.343459694136325" route="0">
    </vehicle>
      <vehicle id="veh21" type="Car0" depart="10.415438465240046" route="7">
    </vehicle>
      <vehicle id="veh22" type="Car0" depart="11.333092221441712" route="8">
    </vehicle>
      <vehicle id="veh23" type="Car0" depart="11.361379816630233" route="17">
    </vehicle>
      <vehicle id="veh24" type="Car0" depart="11.970839270388007" route="11">
    </vehicle>
      <vehicle id="veh25" type="Car0" depart="12.207947491504122" route="5">
    </vehicle>
      <vehicle id="veh26" type="Car0" depart="12.459075040668083" route="24">
    </vehicle>
      <vehicle id="veh27" type="Car0" depart="13.482579009855375" route="15">
    </vehicle>
      <vehicle id="veh28" type="Car0" depart="13.922290644673918" route="25">
    </vehicle>
      <vehicle id="veh29" type="Car0" depart="14.86200809094658" route="6">
    </vehicle>
      <vehicle id="veh30" type="Car0" depart="15.039182599684755" route="13">
    </vehicle>
      <vehicle id="veh31" type="Car0" depart="15.097855078623407" route="3">
    </vehicle>
      <vehicle id="veh32" type="Car0" depart="15.18791735844577" route="26">
    </vehicle>
      <vehicle id="veh33" type="Car0" depart="15.494283043994104" route="28">
    </vehicle>
      <vehicle id="veh34" type="Car0" depart="15.672364693912503" route="21">
    </vehicle>
      <vehicle id="veh35" type="Car0" depart="17.952482730303092" route="10">
    </vehicle>
      <vehicle id="veh36" type="Car0" depart="18.120744487805567" route="13">
    </vehicle>
      <vehicle id="veh37" type="Car0" depart="20.690791928770906" route="9">
    </vehicle>
      <vehicle id="veh38" type="Car0" depart="22.659071742245068" route="15">
    </vehicle>
      <vehicle id="veh39" type="Car0" depart="23.428153593763763" route="27">
    </vehicle>
      <vehicle id="veh40" type="Car0" depart="24.30433083387873" route="17">
    </vehicle>
</routes>