<!-- number of vehicles:100 -->
<!-- generated on 2022-01-05 17:42:11.356722 by "vehicleFlow.py cars_100_1.rou.xml -m 2 -r 1.5 -t 100" -->
<routes>
  <route id="0" edges="w_to_c1 c1_to_c2 c2_to_e"/>
  <route id="1" edges="n1_to_c1 c1_to_s1"/>
  <route id="2" edges="s1_to_c1 c1_to_n1"/>
  <route id="3" edges="n2_to_c2 c2_to_s2"/>
  <route id="4" edges="e_to_c2 c2_to_c1 c1_to_w"/>
  <route id="5" edges="s2_to_c2 c2_to_n2"/>
  <route id="6" edges="w_to_c1 c1_to_s1"/>
  <route id="7" edges="w_to_c1 c1_to_c2 c2_to_s2"/>
  <route id="8" edges="w_to_c1 c1_to_c2 c2_to_n2"/>
  <route id="9" edges="w_to_c1 c1_to_n1"/>
  <route id="10" edges="s1_to_c1 c1_to_c2 c2_to_s2"/>
  <route id="11" edges="s1_to_c1 c1_to_c2 c2_to_e"/>
  <route id="12" edges="s1_to_c1 c1_to_c2 c2_to_n2"/>
  <route id="13" edges="s1_to_c1 c1_to_w"/>
  <route id="14" edges="s2_to_c2 c2_to_e"/>
  <route id="15" edges="s2_to_c2 c2_to_c1 c1_to_n1"/>
  <route id="16" edges="s2_to_c2 c2_to_c1 c1_to_w"/>
  <route id="17" edges="s2_to_c2 c2_to_c1 c1_to_s1"/>
  <route id="18" edges="e_to_c2 c2_to_n2"/>
  <route id="19" edges="e_to_c2 c2_to_c1 c1_to_n1"/>
  <route id="20" edges="e_to_c2 c2_to_c1 c1_to_s1"/>
  <route id="21" edges="e_to_c2 c2_to_s2"/>
  <route id="22" edges="n2_to_c2 c2_to_c1 c1_to_n1"/>
  <route id="23" edges="n2_to_c2 c2_to_c1 c1_to_w"/>
  <route id="24" edges="n2_to_c2 c2_to_c1 c1_to_s1"/>
  <route id="25" edges="n2_to_c2 c2_to_e"/>
  <route id="26" edges="n1_to_c1 c1_to_w"/>
  <route id="27" edges="n1_to_c1 c1_to_c2 c2_to_s2"/>
  <route id="28" edges="n1_to_c1 c1_to_c2 c2_to_e"/>
  <route id="29" edges="n1_to_c1 c1_to_c2 c2_to_n2"/>

  <vType accel="4" decel="7.5" emergencyDecel="7.5" minGap="5.0" speedDev="0.1" speedFactor="1.2" id="Car0" maxSpeed="27.77" />

      <vehicle id="veh1" type="Car0" depart="0.05851785778149692" route="14">
    </vehicle>
      <vehicle id="veh2" type="Car0" depart="1.3606639937936402" route="5">
    </vehicle>
      <vehicle id="veh3" type="Car0" depart="1.5763061988283802" route="3">
    </vehicle>
      <vehicle id="veh4" type="Car0" depart="3.723342992621325" route="10">
    </vehicle>
      <vehicle id="veh5" type="Car0" depart="4.008332750142072" route="5">
    </vehicle>
      <vehicle id="veh6" type="Car0" depart="4.6011327098992325" route="27">
    </vehicle>
      <vehicle id="veh7" type="Car0" depart="4.660239343776853" route="16">
    </vehicle>
      <vehicle id="veh8" type="Car0" depart="4.886252231973962" route="11">
    </vehicle>
      <vehicle id="veh9" type="Car0" depart="5.442994601185959" route="5">
    </vehicle>
      <vehicle id="veh10" type="Car0" depart="7.090362273878385" route="20">
    </vehicle>
      <vehicle id="veh11" type="Car0" depart="8.414927361850978" route="27">
    </vehicle>
      <vehicle id="veh12" type="Car0" depart="8.511601017585203" route="9">
    </vehicle>
      <vehicle id="veh13" type="Car0" depart="8.613228319205302" route="1">
    </vehicle>
      <vehicle id="veh14" type="Car0" depart="8.706120333824659" route="28">
    </vehicle>
      <vehicle id="veh15" type="Car0" depart="9.802172778944895" route="12">
    </vehicle>
      <vehicle id="veh16" type="Car0" depart="9.815112369736232" route="16">
    </vehicle>
      <vehicle id="veh17" type="Car0" depart="10.097437761352852" route="10">
    </vehicle>
      <vehicle id="veh18" type="Car0" depart="10.389243361641636" route="20">
    </vehicle>
      <vehicle id="veh19" type="Car0" depart="10.979616729804542" route="19">
    </vehicle>
      <vehicle id="veh20" type="Car0" depart="11.504273222137849" route="17">
    </vehicle>
      <vehicle id="veh21" type="Car0" depart="11.791256506615072" route="10">
    </vehicle>
      <vehicle id="veh22" type="Car0" depart="12.033210297379888" route="11">
    </vehicle>
      <vehicle id="veh23" type="Car0" depart="13.152012234062926" route="11">
    </vehicle>
      <vehicle id="veh24" type="Car0" depart="13.601688665686918" route="0">
    </vehicle>
      <vehicle id="veh25" type="Car0" depart="13.610010620269444" route="1">
    </vehicle>
      <vehicle id="veh26" type="Car0" depart="14.50508896616208" route="22">
    </vehicle>
      <vehicle id="veh27" type="Car0" depart="14.660481882593352" route="28">
    </vehicle>
      <vehicle id="veh28" type="Car0" depart="14.942040926427053" route="15">
    </vehicle>
      <vehicle id="veh29" type="Car0" depart="15.252225792370762" route="3">
    </vehicle>
      <vehicle id="veh30" type="Car0" depart="16.657506438081672" route="18">
    </vehicle>
      <vehicle id="veh31" type="Car0" depart="17.10169486271775" route="26">
    </vehicle>
      <vehicle id="veh32" type="Car0" depart="17.59319264042181" route="11">
    </vehicle>
      <vehicle id="veh33" type="Car0" depart="17.728530053434454" route="19">
    </vehicle>
      <vehicle id="veh34" type="Car0" depart="17.934004043185478" route="1">
    </vehicle>
      <vehicle id="veh35" type="Car0" depart="18.065647081547517" route="6">
    </vehicle>
      <vehicle id="veh36" type="Car0" depart="18.263104270872805" route="6">
    </vehicle>
      <vehicle id="veh37" type="Car0" depart="19.054511259487935" route="7">
    </vehicle>
      <vehicle id="veh38" type="Car0" depart="19.79033905943899" route="3">
    </vehicle>
      <vehicle id="veh39" type="Car0" depart="20.47734707454958" route="11">
    </vehicle>
      <vehicle id="veh40" type="Car0" depart="20.530627619313048" route="21">
    </vehicle>
      <vehicle id="veh41" type="Car0" depart="21.12547982970903" route="6">
    </vehicle>
      <vehicle id="veh42" type="Car0" depart="21.60324784464233" route="3">
    </vehicle>
      <vehicle id="veh43" type="Car0" depart="22.21115852645507" route="18">
    </vehicle>
      <vehicle id="veh44" type="Car0" depart="22.783578057967656" route="4">
    </vehicle>
      <vehicle id="veh45" type="Car0" depart="22.893634944157892" route="3">
    </vehicle>
      <vehicle id="veh46" type="Car0" depart="24.419068794631798" route="20">
    </vehicle>
      <vehicle id="veh47" type="Car0" depart="24.67011289616615" route="0">
    </vehicle>
      <vehicle id="veh48" type="Car0" depart="24.92957261860582" route="5">
    </vehicle>
      <vehicle id="veh49" type="Car0" depart="25.593796194259987" route="0">
    </vehicle>
      <vehicle id="veh50" type="Car0" depart="25.74449388752652" route="14">
    </vehicle>
      <vehicle id="veh51" type="Car0" depart="26.241772987215832" route="2">
    </vehicle>
      <vehicle id="veh52" type="Car0" depart="27.063468553846768" route="5">
    </vehicle>
      <vehicle id="veh53" type="Car0" depart="28.249196462777103" route="18">
    </vehicle>
      <vehicle id="veh54" type="Car0" depart="28.7637008398084" route="12">
    </vehicle>
      <vehicle id="veh55" type="Car0" depart="28.89193241352599" route="23">
    </vehicle>
      <vehicle id="veh56" type="Car0" depart="29.18174893205893" route="14">
    </vehicle>
      <vehicle id="veh57" type="Car0" depart="29.96110229996236" route="15">
    </vehicle>
      <vehicle id="veh58" type="Car0" depart="30.549666396037537" route="10">
    </vehicle>
      <vehicle id="veh59" type="Car0" depart="32.353141529712516" route="1">
    </vehicle>
      <vehicle id="veh60" type="Car0" depart="32.425484037272795" route="1">
    </vehicle>
      <vehicle id="veh61" type="Car0" depart="32.47735836845413" route="24">
    </vehicle>
      <vehicle id="veh62" type="Car0" depart="32.946547072573246" route="15">
    </vehicle>
      <vehicle id="veh63" type="Car0" depart="33.45153015008029" route="20">
    </vehicle>
      <vehicle id="veh64" type="Car0" depart="33.88504997121078" route="1">
    </vehicle>
      <vehicle id="veh65" type="Car0" depart="34.533545189676616" route="19">
    </vehicle>
      <vehicle id="veh66" type="Car0" depart="35.15772435177805" route="7">
    </vehicle>
      <vehicle id="veh67" type="Car0" depart="37.35985660291811" route="28">
    </vehicle>
      <vehicle id="veh68" type="Car0" depart="37.51418060537298" route="24">
    </vehicle>
      <vehicle id="veh69" type="Car0" depart="38.25269873762128" route="9">
    </vehicle>
      <vehicle id="veh70" type="Car0" depart="39.57347602513435" route="1">
    </vehicle>
      <vehicle id="veh71" type="Car0" depart="39.87744932584506" route="20">
    </vehicle>
      <vehicle id="veh72" type="Car0" depart="39.966097462132836" route="8">
    </vehicle>
      <vehicle id="veh73" type="Car0" depart="40.57387972879008" route="27">
    </vehicle>
      <vehicle id="veh74" type="Car0" depart="40.667935102198555" route="25">
    </vehicle>
      <vehicle id="veh75" type="Car0" depart="41.22753044946853" route="9">
    </vehicle>
      <vehicle id="veh76" type="Car0" depart="41.255159558111146" route="28">
    </vehicle>
      <vehicle id="veh77" type="Car0" depart="43.44915957502044" route="26">
    </vehicle>
      <vehicle id="veh78" type="Car0" depart="43.50658088475598" route="26">
    </vehicle>
      <vehicle id="veh79" type="Car0" depart="43.78042351984339" route="2">
    </vehicle>
      <vehicle id="veh80" type="Car0" depart="44.105569438644785" route="29">
    </vehicle>
      <vehicle id="veh81" type="Car0" depart="45.10754069770102" route="6">
    </vehicle>
      <vehicle id="veh82" type="Car0" depart="45.281220574157814" route="3">
    </vehicle>
      <vehicle id="veh83" type="Car0" depart="46.32536090231563" route="26">
    </vehicle>
      <vehicle id="veh84" type="Car0" depart="46.48632768830545" route="6">
    </vehicle>
      <vehicle id="veh85" type="Car0" depart="46.72168307016554" route="15">
    </vehicle>
      <vehicle id="veh86" type="Car0" depart="46.8466759861656" route="5">
    </vehicle>
      <vehicle id="veh87" type="Car0" depart="46.970043746790125" route="10">
    </vehicle>
      <vehicle id="veh88" type="Car0" depart="47.69878641385211" route="5">
    </vehicle>
      <vehicle id="veh89" type="Car0" depart="48.541159468162355" route="11">
    </vehicle>
      <vehicle id="veh90" type="Car0" depart="50.014302589701536" route="3">
    </vehicle>
      <vehicle id="veh91" type="Car0" depart="50.85304198383465" route="2">
    </vehicle>
      <vehicle id="veh92" type="Car0" depart="51.202479340228706" route="23">
    </vehicle>
      <vehicle id="veh93" type="Car0" depart="51.44665605069335" route="7">
    </vehicle>
      <vehicle id="veh94" type="Car0" depart="51.89012680734185" route="17">
    </vehicle>
      <vehicle id="veh95" type="Car0" depart="52.13237023255101" route="17">
    </vehicle>
      <vehicle id="veh96" type="Car0" depart="52.65736815103319" route="2">
    </vehicle>
      <vehicle id="veh97" type="Car0" depart="53.37748703603188" route="7">
    </vehicle>
      <vehicle id="veh98" type="Car0" depart="53.386973019718454" route="6">
    </vehicle>
      <vehicle id="veh99" type="Car0" depart="54.96246883552034" route="19">
    </vehicle>
      <vehicle id="veh100" type="Car0" depart="55.35063014516059" route="21">
    </vehicle>
</routes>