<!-- number of vehicles:50 -->
<!-- generated on 2022-01-05 17:42:11.861570 by "vehicleFlow.py cars_50_4.rou.xml -m 2 -r 1.5 -t 50" -->
<routes>
  <route id="0" edges="w_to_c1 c1_to_c2 c2_to_e"/>
  <route id="1" edges="n1_to_c1 c1_to_s1"/>
  <route id="2" edges="s1_to_c1 c1_to_n1"/>
  <route id="3" edges="n2_to_c2 c2_to_s2"/>
  <route id="4" edges="e_to_c2 c2_to_c1 c1_to_w"/>
  <route id="5" edges="s2_to_c2 c2_to_n2"/>
  <route id="6" edges="w_to_c1 c1_to_s1"/>
  <route id="7" edges="w_to_c1 c1_to_c2 c2_to_s2"/>
  <route id="8" edges="w_to_c1 c1_to_c2 c2_to_n2"/>
  <route id="9" edges="w_to_c1 c1_to_n1"/>
  <route id="10" edges="s1_to_c1 c1_to_c2 c2_to_s2"/>
  <route id="11" edges="s1_to_c1 c1_to_c2 c2_to_e"/>
  <route id="12" edges="s1_to_c1 c1_to_c2 c2_to_n2"/>
  <route id="13" edges="s1_to_c1 c1_to_w"/>
  <route id="14" edges="s2_to_c2 c2_to_e"/>
  <route id="15" edges="s2_to_c2 c2_to_c1 c1_to_n1"/>
  <route id="16" edges="s2_to_c2 c2_to_c1 c1_to_w"/>
  <route id="17" edges="s2_to_c2 c2_to_c1 c1_to_s1"/>
  <route id="18" edges="e_to_c2 c2_to_n2"/>
  <route id="19" edges="e_to_c2 c2_to_c1 c1_to_n1"/>
  <route id="20" edges="e_to_c2 c2_to_c1 c1_to_s1"/>
  <route id="21" edges="e_to_c2 c2_to_s2"/>
  <route id="22" edges="n2_to_c2 c2_to_c1 c1_to_n1"/>
  <route id="23" edges="n2_to_c2 c2_to_c1 c1_to_w"/>
  <route id="24" edges="n2_to_c2 c2_to_c1 c1_to_s1"/>
  <route id="25" edges="n2_to_c2 c2_to_e"/>
  <route id="26" edges="n1_to_c1 c1_to_w"/>
  <route id="27" edges="n1_to_c1 c1_to_c2 c2_to_s2"/>
  <route id="28" edges="n1_to_c1 c1_to_c2 c2_to_e"/>
  <route id="29" edges="n1_to_c1 c1_to_c2 c2_to_n2"/>

  <vType accel="4" decel="7.5" emergencyDecel="7.5" minGap="5.0" speedDev="0.1" speedFactor="1.2" id="Car0" maxSpeed="27.77" />

      <vehicle id="veh1" type="Car0" depart="0.026566116604727286" route="23">
    </vehicle>
      <vehicle id="veh2" type="Car0" depart="0.9545212331808253" route="22">
    </vehicle>
      <vehicle id="veh3" type="Car0" depart="3.2744768722224658" route="16">
    </vehicle>
      <vehicle id="veh4" type="Car0" depart="3.3222474855681345" route="22">
    </vehicle>
      <vehicle id="veh5" type="Car0" depart="3.354840457178447" route="3">
    </vehicle>
      <vehicle id="veh6" type="Car0" depart="3.75133868148154" route="10">
    </vehicle>
      <vehicle id="veh7" type="Car0" depart="4.631633464693118" route="16">
    </vehicle>
      <vehicle id="veh8" type="Car0" depart="4.661678107320641" route="11">
    </vehicle>
      <vehicle id="veh9" type="Car0" depart="4.927981629647586" route="1">
    </vehicle>
      <vehicle id="veh10" type="Car0" depart="5.160870273436768" route="29">
    </vehicle>
      <vehicle id="veh11" type="Car0" depart="5.749124880113746" route="8">
    </vehicle>
      <vehicle id="veh12" type="Car0" depart="6.978875693182658" route="22">
    </vehicle>
      <vehicle id="veh13" type="Car0" depart="7.982812513633315" route="11">
    </vehicle>
      <vehicle id="veh14" type="Car0" depart="8.458573744934457" route="29">
    </vehicle>
      <vehicle id="veh15" type="Car0" depart="8.75253215240112" route="15">
    </vehicle>
      <vehicle id="veh16" type="Car0" depart="9.171325713616685" route="18">
    </vehicle>
      <vehicle id="veh17" type="Car0" depart="10.511566072353645" route="11">
    </vehicle>
      <vehicle id="veh18" type="Car0" depart="10.920209210784607" route="0">
    </vehicle>
      <vehicle id="veh19" type="Car0" depart="11.326937648545229" route="25">
    </vehicle>
      <vehicle id="veh20" type="Car0" depart="11.851579871113545" route="6">
    </vehicle>
      <vehicle id="veh21" type="Car0" depart="12.74231517210139" route="29">
    </vehicle>
      <vehicle id="veh22" type="Car0" depart="13.117961076511628" route="14">
    </vehicle>
      <vehicle id="veh23" type="Car0" depart="13.245227375952549" route="5">
    </vehicle>
      <vehicle id="veh24" type="Car0" depart="13.637924201333512" route="9">
    </vehicle>
      <vehicle id="veh25" type="Car0" depart="14.39638583140821" route="28">
    </vehicle>
      <vehicle id="veh26" type="Car0" depart="15.18450848613329" route="20">
    </vehicle>
      <vehicle id="veh27" type="Car0" depart="15.329836322792056" route="7">
    </vehicle>
      <vehicle id="veh28" type="Car0" depart="16.024637974483774" route="8">
    </vehicle>
      <vehicle id="veh29" type="Car0" depart="16.7804371371507" route="25">
    </vehicle>
      <vehicle id="veh30" type="Car0" depart="17.621362616757576" route="5">
    </vehicle>
      <vehicle id="veh31" type="Car0" depart="18.212748424958985" route="19">
    </vehicle>
      <vehicle id="veh32" type="Car0" depart="18.243908879001385" route="13">
    </vehicle>
      <vehicle id="veh33" type="Car0" depart="18.789776457259453" route="21">
    </vehicle>
      <vehicle id="veh34" type="Car0" depart="19.454517354058687" route="23">
    </vehicle>
      <vehicle id="veh35" type="Car0" depart="19.562328801495504" route="28">
    </vehicle>
      <vehicle id="veh36" type="Car0" depart="21.151147370354185" route="27">
    </vehicle>
      <vehicle id="veh37" type="Car0" depart="21.27958156445151" route="27">
    </vehicle>
      <vehicle id="veh38" type="Car0" depart="21.41813769489664" route="19">
    </vehicle>
      <vehicle id="veh39" type="Car0" depart="22.1384285072802" route="6">
    </vehicle>
      <vehicle id="veh40" type="Car0" depart="23.372080186481956" route="12">
    </vehicle>
      <vehicle id="veh41" type="Car0" depart="24.47345455378436" route="18">
    </vehicle>
      <vehicle id="veh42" type="Car0" depart="24.62110076487822" route="29">
    </vehicle>
      <vehicle id="veh43" type="Car0" depart="25.538580129097628" route="15">
    </vehicle>
      <vehicle id="veh44" type="Car0" depart="26.06807491126053" route="21">
    </vehicle>
      <vehicle id="veh45" type="Car0" depart="27.29851862310587" route="28">
    </vehicle>
      <vehicle id="veh46" type="Car0" depart="27.64294712289989" route="24">
    </vehicle>
      <vehicle id="veh47" type="Car0" depart="27.90479124127406" route="28">
    </vehicle>
      <vehicle id="veh48" type="Car0" depart="28.967080993568754" route="1">
    </vehicle>
      <vehicle id="veh49" type="Car0" depart="29.02660000209658" route="10">
    </vehicle>
      <vehicle id="veh50" type="Car0" depart="29.556037395382514" route="9">
    </vehicle>
</routes>